Version 4
SHEET 1 1192 916
WIRE 80 -32 -144 -32
WIRE 128 -32 80 -32
WIRE 336 -32 128 -32
WIRE 384 -32 336 -32
WIRE 656 -32 384 -32
WIRE 704 -32 656 -32
WIRE 896 -32 704 -32
WIRE 944 -32 896 -32
WIRE 80 16 80 -32
WIRE 128 16 128 -32
WIRE 336 16 336 -32
WIRE 384 16 384 -32
WIRE 656 16 656 -32
WIRE 704 16 704 -32
WIRE 896 16 896 -32
WIRE 944 16 944 -32
WIRE 80 64 80 32
WIRE 384 64 384 32
WIRE 656 64 656 32
WIRE 944 64 944 32
WIRE -64 80 -144 80
WIRE 32 80 -48 80
WIRE 480 80 432 80
WIRE 608 80 560 80
WIRE 1056 80 992 80
WIRE 1120 80 1072 80
WIRE 480 96 480 80
WIRE 560 96 560 80
WIRE 128 112 128 32
WIRE 128 112 80 112
WIRE 336 112 336 32
WIRE 384 112 336 112
WIRE 704 112 704 32
WIRE 704 112 656 112
WIRE 896 112 896 32
WIRE 944 112 896 112
WIRE 80 192 80 160
WIRE 192 192 80 192
WIRE 384 192 384 176
WIRE 384 192 208 192
WIRE 480 208 480 112
WIRE 512 208 480 208
WIRE 656 208 656 176
WIRE 656 208 528 208
WIRE 384 224 384 192
WIRE 656 224 656 208
WIRE 384 272 384 240
WIRE 432 272 384 272
WIRE 560 272 560 112
WIRE 560 272 448 272
WIRE 656 272 656 240
WIRE 816 272 656 272
WIRE 944 272 944 160
WIRE 944 272 832 272
WIRE 384 288 384 272
WIRE 656 288 656 272
WIRE 384 320 384 304
WIRE 480 320 480 208
WIRE 560 320 560 272
WIRE 656 320 656 304
WIRE 384 368 208 368
WIRE 832 368 656 368
WIRE 480 400 480 336
WIRE 480 400 432 400
WIRE 560 400 560 336
WIRE 608 400 560 400
WIRE 208 432 208 368
WIRE 384 432 384 416
WIRE 656 432 656 416
WIRE 832 432 832 368
WIRE 384 528 384 448
WIRE 656 528 656 448
WIRE 432 576 384 576
WIRE 656 576 624 576
WIRE 256 608 -144 608
WIRE 336 608 272 608
WIRE 752 608 704 608
WIRE 1120 608 768 608
WIRE 384 640 384 624
WIRE 432 640 432 576
WIRE 624 640 624 576
WIRE 656 640 656 624
WIRE 384 688 384 656
WIRE 528 688 384 688
WIRE 656 688 656 656
WIRE 656 688 528 688
WIRE 528 704 528 688
WIRE 528 736 528 720
WIRE 576 784 528 784
WIRE 336 816 -144 816
WIRE 480 816 352 816
WIRE 576 816 576 784
WIRE 208 864 208 448
WIRE 208 864 -144 864
WIRE 432 864 432 656
WIRE 432 864 208 864
WIRE 528 864 528 848
WIRE 528 864 432 864
WIRE 576 864 576 832
WIRE 576 864 528 864
WIRE 624 864 624 656
WIRE 624 864 576 864
WIRE 832 864 832 448
WIRE 832 864 624 864
FLAG -144 -32 vdd
IOPIN -144 -32 In
FLAG -144 864 vss
IOPIN -144 864 In
FLAG -144 80 clk
IOPIN -144 80 In
FLAG -144 608 inn
IOPIN -144 608 In
FLAG -144 816 clk
IOPIN -144 816 In
FLAG 1120 80 clk
IOPIN 1120 80 In
FLAG 1120 608 inp
IOPIN 1120 608 In
SYMBOL pmos4 32 160 M180
SYMATTR InstName M1
SYMATTR Value cmosp
SYMATTR Value2 l=0.13u w=1u m=8
SYMBOL pmos4 432 160 R180
SYMATTR InstName M2
SYMATTR Value cmosp
SYMATTR Value2 l=0.13u w=1u m=12
SYMBOL pmos4 608 160 M180
SYMATTR InstName M3
SYMATTR Value cmosp
SYMATTR Value2 l=0.13u w=1u m=12
SYMBOL pmos4 992 160 R180
SYMATTR InstName M4
SYMATTR Value cmosp
SYMATTR Value2 l=0.13u w=1u m=8
SYMBOL nmos4 432 320 M0
SYMATTR InstName M5
SYMATTR Value cmosn
SYMATTR Value2 l=0.13u w=1u m=8
SYMBOL nmos4 608 320 R0
SYMATTR InstName M6
SYMATTR Value cmosn
SYMATTR Value2 l=0.13u w=1u m=8
SYMBOL nmos4 336 528 R0
SYMATTR InstName M7
SYMATTR Value cmosn
SYMATTR Value2 l=0.13u w=1u m=12
SYMBOL nmos4 704 528 M0
SYMATTR InstName M8
SYMATTR Value cmosn
SYMATTR Value2 l=0.13u w=1u m=12
SYMBOL nmos4 480 736 R0
SYMATTR InstName M9
SYMATTR Value cmosn
SYMATTR Value2 l=0.13u w=1u m=12
SYMBOL para_res 80 32 R90
SYMATTR InstName X1
SYMBOL para_res 128 32 R90
SYMATTR InstName X2
SYMBOL para_res 336 32 R90
SYMATTR InstName X3
SYMBOL para_res 384 32 R90
SYMATTR InstName X4
SYMBOL para_res 656 32 R90
SYMATTR InstName X5
SYMBOL para_res 704 32 R90
SYMATTR InstName X6
SYMBOL para_res 896 32 R90
SYMATTR InstName X7
SYMBOL para_res 944 32 R90
SYMATTR InstName X8
SYMBOL para_res -64 80 R180
SYMATTR InstName X9
SYMBOL para_res 1056 80 R180
SYMATTR InstName X10
SYMBOL para_res 192 192 R180
SYMATTR InstName X11
SYMBOL para_res 816 272 R180
SYMATTR InstName X12
SYMBOL para_res 480 96 R270
SYMATTR InstName X13
SYMBOL para_res 384 160 R270
SYMATTR InstName X14
SYMBOL para_res 560 96 R270
SYMATTR InstName X15
SYMBOL para_res 656 160 R270
SYMATTR InstName X16
SYMBOL para_res 480 320 R270
SYMATTR InstName X17
SYMBOL para_res 560 320 R270
SYMATTR InstName X18
SYMBOL para_res 656 224 R270
SYMATTR InstName X19
SYMBOL para_res 384 224 R270
SYMATTR InstName X20
SYMBOL para_res 384 288 R270
SYMATTR InstName X21
SYMBOL para_res 656 288 R270
SYMATTR InstName X22
SYMBOL para_res 208 432 R270
SYMATTR InstName X23
SYMBOL para_res 384 432 R270
SYMATTR InstName X24
SYMBOL para_res 656 432 R270
SYMATTR InstName X25
SYMBOL para_res 832 432 R270
SYMATTR InstName X26
SYMBOL para_res 272 608 R0
SYMATTR InstName X27
SYMBOL para_res 768 608 R0
SYMATTR InstName X28
SYMBOL para_res 384 656 R90
SYMATTR InstName X29
SYMBOL para_res 432 656 R90
SYMATTR InstName X30
SYMBOL para_res 624 656 R90
SYMATTR InstName X31
SYMBOL para_res 656 656 R90
SYMATTR InstName X32
SYMBOL para_res 528 720 R90
SYMATTR InstName X33
SYMBOL para_res 336 816 R180
SYMATTR InstName X34
SYMBOL para_res 528 832 R270
SYMATTR InstName X35
SYMBOL para_res 576 816 R270
SYMATTR InstName X36
SYMBOL para_res 448 272 R0
SYMATTR InstName X37
SYMBOL para_res 528 208 R0
SYMATTR InstName X38
