Version 4
SHEET 1 940 732
WIRE 400 352 -240 352
WIRE 400 384 400 352
WIRE 160 432 -80 432
WIRE 304 432 160 432
WIRE 576 432 480 432
WIRE 800 432 576 432
WIRE 160 480 32 480
WIRE 304 480 160 480
WIRE 688 480 480 480
WIRE 800 480 688 480
WIRE -240 512 -240 352
WIRE -80 512 -80 432
WIRE 32 512 32 480
WIRE 576 512 576 432
WIRE 688 512 688 480
WIRE 304 528 192 528
WIRE 400 576 400 544
WIRE 192 592 192 528
WIRE -240 624 -240 592
WIRE 32 624 32 592
WIRE 576 624 576 576
WIRE 688 624 688 576
WIRE 192 704 192 672
FLAG -240 624 0
FLAG 192 704 0
FLAG 576 624 0
FLAG 688 624 0
FLAG 400 576 0
FLAG 800 432 VOUTP
FLAG 800 480 VOUTN
FLAG -80 512 0
FLAG 32 624 0
FLAG 160 432 vinp
FLAG 160 480 vinn
SYMBOL voltage 192 576 R0
WINDOW 123 0 0 Left 0
WINDOW 39 0 0 Left 0
SYMATTR InstName V1
SYMATTR Value PULSE(0 1 0 30p 30p 5.555n 11.11n)
SYMBOL voltage -240 496 R0
WINDOW 123 0 0 Left 0
WINDOW 39 0 0 Left 0
SYMATTR InstName V3
SYMATTR Value 1.8
SYMBOL cap 560 512 R0
SYMATTR InstName C1
SYMATTR Value 10f
SYMBOL cap 672 512 R0
SYMATTR InstName C2
SYMATTR Value 10f
SYMBOL my_comparator 384 464 R0
SYMATTR InstName X1
SYMBOL voltage 32 496 R0
WINDOW 123 0 0 Left 0
WINDOW 39 0 0 Left 0
SYMATTR InstName V2
SYMATTR Value PULSE(-0.5 0.5 0 12.8u 0 0.2u 13u)
TEXT 48 56 Left 2 !.step dec param VIN 0.1m 10m
TEXT 48 96 Left 2 !.tran 13u
TEXT 48 160 Left 2 !.meas tl when V(VOUTP) = 1.72
TEXT 432 272 Left 2 !.op
