Version 4
SHEET 1 1396 680
WIRE 336 224 -304 224
WIRE -32 256 -112 256
WIRE 128 256 -32 256
WIRE 336 256 336 224
WIRE -32 272 -32 256
WIRE 928 272 912 272
WIRE 912 288 912 272
WIRE 928 288 912 288
WIRE 1072 288 992 288
WIRE 128 304 128 256
WIRE 176 304 128 304
WIRE 240 304 176 304
WIRE 512 304 416 304
WIRE 768 304 512 304
WIRE 928 304 768 304
WIRE 928 320 864 320
WIRE 1024 320 992 320
WIRE 1104 320 1024 320
WIRE 176 352 80 352
WIRE 240 352 176 352
WIRE 624 352 416 352
WIRE 736 352 624 352
WIRE 912 352 912 288
WIRE 928 352 928 336
WIRE 928 352 912 352
WIRE 944 352 944 336
WIRE 944 352 928 352
WIRE 1072 352 1072 288
WIRE 1072 352 944 352
WIRE -96 368 -192 368
WIRE -32 368 -32 352
WIRE -32 368 -96 368
WIRE 864 368 864 320
WIRE 1040 368 864 368
WIRE -304 384 -304 224
WIRE -192 384 -192 368
WIRE -32 384 -32 368
WIRE 512 384 512 304
WIRE 624 384 624 352
WIRE -96 400 -96 368
WIRE -80 400 -96 400
WIRE 240 400 128 400
WIRE 1024 400 1024 320
WIRE 1024 400 896 400
WIRE 928 416 912 416
WIRE 896 432 896 400
WIRE 928 432 896 432
WIRE 1072 432 1072 352
WIRE 1072 432 992 432
WIRE -112 448 -112 256
WIRE -80 448 -112 448
WIRE 336 448 336 416
WIRE 736 448 736 352
WIRE 784 448 736 448
WIRE 928 448 784 448
WIRE 128 464 128 400
WIRE 912 464 912 416
WIRE 928 464 912 464
WIRE 1040 464 1040 368
WIRE 1040 464 992 464
WIRE 1104 464 1040 464
WIRE -32 480 -32 464
WIRE 80 480 80 352
WIRE 80 480 -32 480
WIRE -304 496 -304 464
WIRE -192 496 -192 464
WIRE 512 496 512 448
WIRE 624 496 624 448
WIRE 912 496 912 464
WIRE 928 496 928 480
WIRE 928 496 912 496
WIRE 944 496 944 480
WIRE 944 496 928 496
WIRE 1072 496 1072 432
WIRE 1072 496 944 496
WIRE 928 528 928 496
WIRE 128 576 128 544
FLAG -304 496 0
FLAG -192 496 0
FLAG 128 576 0
FLAG 512 496 0
FLAG 624 496 0
FLAG 336 448 0
FLAG 1104 464 VOUTP
FLAG 1104 320 VOUTN
FLAG 928 528 0
FLAG 768 304 VOP
FLAG 784 448 VON
FLAG 176 304 VINP
FLAG 176 352 VINN
DATAFLAG 1088 320 ""
SYMBOL voltage 128 448 R0
WINDOW 123 0 0 Left 0
WINDOW 39 0 0 Left 0
SYMATTR InstName V1
SYMATTR Value PULSE(0 1.8 1n 60p 60p 5n 10n)
SYMBOL voltage -32 256 R0
WINDOW 123 0 0 Left 0
WINDOW 39 0 0 Left 0
WINDOW 3 339 96 Center 2
SYMATTR InstName VIN1
SYMATTR Value PULSE(-25m 25m 0 1000n 0 0 1000n)
SYMBOL voltage -192 368 R0
WINDOW 123 0 0 Left 0
WINDOW 39 0 0 Left 0
SYMATTR InstName V2
SYMATTR Value 0.7
SYMBOL voltage -304 368 R0
WINDOW 123 0 0 Left 0
WINDOW 39 0 0 Left 0
SYMATTR InstName V3
SYMATTR Value 1.8
SYMBOL e -32 480 M180
SYMATTR InstName E1
SYMATTR Value -1
SYMBOL cap 496 384 R0
SYMATTR InstName C1
SYMATTR Value 20f
SYMBOL cap 608 384 R0
SYMATTR InstName C2
SYMATTR Value 20f
SYMBOL my_comparator 320 336 R0
SYMATTR InstName X1
SYMBOL Digital\\or 960 240 R0
SYMATTR InstName A1
SYMBOL Digital\\or 960 384 R0
SYMATTR InstName A2
TEXT 368 144 Left 2 !.op
TEXT 520 0 Left 2 !.ic V(VOP)=0 V(VON)=1.8\n \n.tran 1000n\n.meas offset find V(VINP,VINN) when V(VOUTP)=0.9
