Version 4
SHEET 1 1156 680
WIRE 160 -272 -480 -272
WIRE -208 -240 -288 -240
WIRE -96 -240 -208 -240
WIRE 160 -240 160 -272
WIRE -208 -224 -208 -240
WIRE -96 -176 -96 -240
WIRE 64 -176 -96 -176
WIRE 336 -176 240 -176
WIRE 560 -176 336 -176
WIRE 64 -144 -96 -144
WIRE 448 -144 240 -144
WIRE 560 -144 448 -144
WIRE -272 -128 -368 -128
WIRE -208 -128 -208 -144
WIRE -208 -128 -272 -128
WIRE -480 -112 -480 -272
WIRE -368 -112 -368 -128
WIRE -208 -112 -208 -128
WIRE 336 -112 336 -176
WIRE 448 -112 448 -144
WIRE -272 -96 -272 -128
WIRE -256 -96 -272 -96
WIRE 64 -96 -48 -96
WIRE -288 -48 -288 -240
WIRE -256 -48 -288 -48
WIRE 160 -48 160 -80
WIRE -48 -32 -48 -96
WIRE -208 -16 -208 -32
WIRE -96 -16 -96 -144
WIRE -96 -16 -208 -16
WIRE -480 0 -480 -32
WIRE -368 0 -368 -32
WIRE 336 0 336 -48
WIRE 448 0 448 -48
WIRE -48 80 -48 48
FLAG -480 0 0
FLAG -368 0 0
FLAG -48 80 0
FLAG 336 0 0
FLAG 448 0 0
FLAG 160 -48 0
FLAG 560 -176 VOUTP
FLAG 560 -144 VOUTN
SYMBOL voltage -48 -48 R0
WINDOW 123 0 0 Left 0
WINDOW 39 0 0 Left 0
SYMATTR InstName V1
SYMATTR Value PULSE(0 1.8 1n 60p 60p 5n 10n)
SYMBOL voltage -208 -240 R0
WINDOW 123 0 0 Left 0
WINDOW 39 0 0 Left 0
SYMATTR InstName VIN1
SYMATTR Value {VIN}
SYMBOL voltage -368 -128 R0
WINDOW 123 0 0 Left 0
WINDOW 39 0 0 Left 0
SYMATTR InstName V2
SYMATTR Value 0.9
SYMBOL voltage -480 -128 R0
WINDOW 123 0 0 Left 0
WINDOW 39 0 0 Left 0
SYMATTR InstName V3
SYMATTR Value 1.8
SYMBOL e -208 -16 M180
SYMATTR InstName E1
SYMATTR Value -1
SYMBOL cap 320 -112 R0
SYMATTR InstName C1
SYMATTR Value 10f
SYMBOL cap 432 -112 R0
SYMATTR InstName C2
SYMATTR Value 10f
SYMBOL Draft6 144 -160 R0
SYMATTR InstName X1
TEXT -192 -568 Left 2 !*.step dec param VIN 0.1m 10m
TEXT -192 -528 Left 2 !.tran 40n
TEXT -192 -464 Left 2 !.meas tl when V(VOUTP) = 1.72
TEXT 192 -352 Left 2 !.op
TEXT 160 -400 Left 2 !.include tsmc018.mdl
TEXT -224 -376 Left 2 !.param VIN 10m
