Version 4
SHEET 1 1092 680
WIRE 32 112 -608 112
WIRE 32 144 32 112
WIRE 624 160 608 160
WIRE 608 176 608 160
WIRE 624 176 608 176
WIRE 768 176 688 176
WIRE -64 192 -96 192
WIRE 208 192 112 192
WIRE 464 192 208 192
WIRE 624 192 464 192
WIRE 624 208 560 208
WIRE 720 208 688 208
WIRE 800 208 720 208
WIRE 608 224 608 176
WIRE 624 224 608 224
WIRE -64 240 -96 240
WIRE 320 240 112 240
WIRE 432 240 320 240
WIRE 608 240 608 224
WIRE 640 240 640 224
WIRE 640 240 608 240
WIRE 768 240 768 176
WIRE 768 240 640 240
WIRE 560 256 560 208
WIRE 736 256 560 256
WIRE -608 272 -608 112
WIRE 208 272 208 192
WIRE 320 272 320 240
WIRE -64 288 -96 288
WIRE 720 288 720 208
WIRE 720 288 592 288
WIRE 624 304 608 304
WIRE 592 320 592 288
WIRE 624 320 592 320
WIRE 768 320 768 240
WIRE 768 320 688 320
WIRE 32 336 32 304
WIRE 432 336 432 240
WIRE 480 336 432 336
WIRE 624 336 480 336
WIRE 608 352 608 304
WIRE 624 352 608 352
WIRE 736 352 736 256
WIRE 736 352 688 352
WIRE 800 352 736 352
WIRE 608 368 608 352
WIRE 624 368 608 368
WIRE -608 384 -608 352
WIRE 208 384 208 336
WIRE 320 384 320 336
WIRE 608 384 608 368
WIRE 640 384 640 368
WIRE 640 384 608 384
WIRE 768 384 768 320
WIRE 768 384 640 384
WIRE 608 416 608 384
FLAG -608 384 0
FLAG 208 384 0
FLAG 320 384 0
FLAG 32 336 0
FLAG 800 352 VOUTP
IOPIN 800 352 Out
FLAG 608 416 0
FLAG 464 192 VOP
FLAG 480 336 VON
FLAG -96 192 VINP
IOPIN -96 192 In
FLAG -96 240 VINN
IOPIN -96 240 In
FLAG -96 288 CLK
IOPIN -96 288 In
FLAG 800 208 VOUTN
IOPIN 800 208 Out
DATAFLAG 784 208 ""
SYMBOL voltage -608 256 R0
WINDOW 123 0 0 Left 0
WINDOW 39 0 0 Left 0
SYMATTR InstName V3
SYMATTR Value 1.8
SYMBOL cap 192 272 R0
SYMATTR InstName C1
SYMATTR Value 20f
SYMBOL cap 304 272 R0
SYMATTR InstName C2
SYMATTR Value 20f
SYMBOL my_comparator 16 224 R0
SYMATTR InstName X1
SYMBOL Digital\\or 656 128 R0
SYMATTR InstName A1
SYMATTR SpiceLine Trise={Trise} Td={Td}
SYMBOL Digital\\or 656 272 R0
SYMATTR InstName A2
SYMATTR SpiceLine Trise={Trise} Td={Td}
TEXT 216 -112 Left 2 !.ic V(VOP)=0 V(VON)=1.8
TEXT 472 -192 Left 2 !*.step param X 1 100 1
TEXT 704 456 Left 2 !.param Trise = 1n\n.param Td = 1n
