Version 4
SHEET 1 1092 680
WIRE 32 112 -608 112
WIRE 32 144 32 112
WIRE -256 192 -352 192
WIRE -64 192 -176 192
WIRE 464 192 112 192
WIRE -256 240 -352 240
WIRE -64 240 -176 240
WIRE 464 240 112 240
WIRE -608 272 -608 112
WIRE -64 288 -96 288
WIRE 32 336 32 304
WIRE -608 384 -608 352
FLAG -608 384 0
FLAG 32 336 0
FLAG -352 192 VINP
IOPIN -352 192 In
FLAG -352 240 VINN
IOPIN -352 240 In
FLAG -96 288 CLK
IOPIN -96 288 In
FLAG 464 192 VOUTP
IOPIN 464 192 Out
FLAG 464 240 VOUTN
IOPIN 464 240 Out
SYMBOL voltage -608 256 R0
WINDOW 123 0 0 Left 0
WINDOW 39 0 0 Left 0
SYMATTR InstName V3
SYMATTR Value 1.8
SYMBOL my_comparator 16 224 R0
SYMATTR InstName X1
SYMBOL voltage -160 192 R90
WINDOW 0 -32 56 VBottom 2
WINDOW 3 32 56 VTop 2
WINDOW 123 0 0 Left 0
WINDOW 39 0 0 Left 0
SYMATTR InstName V1
SYMATTR Value {common}
SYMBOL voltage -160 240 R90
WINDOW 0 -32 56 VBottom 2
WINDOW 3 32 56 VTop 2
WINDOW 123 0 0 Left 0
WINDOW 39 0 0 Left 0
SYMATTR InstName V2
SYMATTR Value {common}
TEXT 152 -16 Left 2 !.param common = 0.9
