Version 4
SHEET 1 2728 992
WIRE 80 -240 -64 -240
WIRE 384 -240 80 -240
WIRE 1248 -240 384 -240
WIRE 1760 -240 1248 -240
WIRE 1248 -208 1248 -240
WIRE 1312 -208 1248 -208
WIRE 1760 -208 1760 -240
WIRE 1760 -208 1696 -208
WIRE 1248 -192 1248 -208
WIRE 1760 -192 1760 -208
WIRE 80 -176 80 -240
WIRE 128 -176 80 -176
WIRE 384 -176 384 -240
WIRE 384 -176 320 -176
WIRE 1200 -176 928 -176
WIRE 2080 -176 1808 -176
WIRE 80 -144 80 -176
WIRE 384 -144 384 -176
WIRE 1312 -144 1312 -208
WIRE 1312 -144 1248 -144
WIRE 1696 -144 1696 -208
WIRE 1760 -144 1696 -144
WIRE 32 -128 -64 -128
WIRE 528 -128 432 -128
WIRE 128 -96 128 -176
WIRE 128 -96 80 -96
WIRE 320 -96 320 -176
WIRE 384 -96 320 -96
WIRE 1248 -48 1248 -96
WIRE 1248 -48 1024 -48
WIRE 1760 -48 1760 -96
WIRE 1984 -48 1760 -48
WIRE 1024 -32 1024 -48
WIRE 1984 -32 1984 -48
WIRE 1312 0 1312 -144
WIRE 1312 0 1168 0
WIRE 1696 0 1696 -144
WIRE 1840 0 1696 0
WIRE 1088 16 1024 16
WIRE 1248 16 1248 -48
WIRE 1760 16 1760 -48
WIRE 1984 16 1920 16
WIRE 1376 32 1296 32
WIRE 1712 32 1648 32
WIRE 928 48 928 -176
WIRE 976 48 928 48
WIRE 2080 48 2080 -176
WIRE 2080 48 2032 48
WIRE 1168 64 1168 0
WIRE 1248 64 1168 64
WIRE 1840 64 1840 0
WIRE 1840 64 1760 64
WIRE 80 80 80 -48
WIRE 928 80 928 48
WIRE 928 80 80 80
WIRE 1024 80 1024 64
WIRE 1088 80 1088 16
WIRE 1088 80 1024 80
WIRE 1920 80 1920 16
WIRE 1984 80 1984 64
WIRE 1984 80 1920 80
WIRE 384 128 384 -48
WIRE 2080 128 2080 48
WIRE 2080 128 384 128
WIRE 1248 144 1248 112
WIRE 1648 144 1648 32
WIRE 1648 144 1248 144
WIRE 80 160 80 80
WIRE 384 160 384 128
WIRE 1248 160 1248 144
WIRE 1248 160 1120 160
WIRE 1376 192 1376 32
WIRE 1760 192 1760 112
WIRE 1760 192 1376 192
WIRE 272 208 80 208
WIRE 384 208 272 208
WIRE 1760 208 1760 192
WIRE 1888 208 1760 208
WIRE 1248 224 1248 160
WIRE 1248 224 1024 224
WIRE 1760 224 1760 208
WIRE 1984 224 1760 224
WIRE 32 240 -64 240
WIRE 560 240 432 240
WIRE 80 272 80 256
WIRE 224 272 80 272
WIRE 384 272 384 256
WIRE 384 272 224 272
WIRE 224 320 224 272
WIRE 1024 320 1024 224
WIRE 1248 320 1248 224
WIRE 1760 320 1760 224
WIRE 1984 320 1984 224
WIRE 272 368 272 208
WIRE 272 368 224 368
WIRE 1072 368 1024 368
WIRE 1248 368 1184 368
WIRE 1824 368 1760 368
WIRE 1984 368 1936 368
WIRE 176 400 96 400
WIRE 928 400 928 80
WIRE 976 400 928 400
WIRE 1376 400 1376 192
WIRE 1376 400 1296 400
WIRE 1648 400 1648 144
WIRE 1712 400 1648 400
WIRE 2080 400 2080 128
WIRE 2080 400 2032 400
WIRE 224 448 224 416
WIRE 272 448 272 368
WIRE 272 448 224 448
WIRE 1024 464 1024 416
WIRE 1072 464 1072 368
WIRE 1072 464 1024 464
WIRE 1184 464 1184 368
WIRE 1248 464 1248 416
WIRE 1248 464 1184 464
WIRE 1760 464 1760 416
WIRE 1824 464 1824 368
WIRE 1824 464 1760 464
WIRE 1936 464 1936 368
WIRE 1984 464 1984 416
WIRE 1984 464 1936 464
WIRE 224 512 224 448
WIRE 224 512 -64 512
WIRE 1024 512 1024 464
WIRE 1024 512 224 512
WIRE 1248 512 1248 464
WIRE 1248 512 1024 512
WIRE 1760 512 1760 464
WIRE 1760 512 1248 512
WIRE 1984 512 1984 464
WIRE 1984 512 1760 512
FLAG -64 -240 VDD
IOPIN -64 -240 In
FLAG -64 -128 CLK
IOPIN -64 -128 In
FLAG -64 240 VINP
IOPIN -64 240 In
FLAG -64 512 VSS
IOPIN -64 512 In
FLAG 560 240 VINN
IOPIN 560 240 In
FLAG 96 400 CLK
IOPIN 96 400 In
FLAG 528 -128 CLK
IOPIN 528 -128 In
FLAG 1088 80 VSS
IOPIN 1088 80 In
FLAG 1120 160 VOUTP
IOPIN 1120 160 Out
FLAG 1920 80 VSS
IOPIN 1920 80 In
FLAG 1888 208 VOUTN
IOPIN 1888 208 Out
SYMBOL nmos4 432 160 M0
SYMATTR InstName M2
SYMATTR Value CMOSN
SYMATTR Value2 l={L2} w={W2} m={M2}
SYMBOL nmos4 176 320 R0
SYMATTR InstName M3
SYMATTR Value CMOSN
SYMATTR Value2 l={L3} w={W3} m={M3}
SYMBOL pmos4 32 -48 M180
SYMATTR InstName M4
SYMATTR Value CMOSP
SYMATTR Value2 l={L4} w={W4} m={M4}
SYMBOL pmos4 432 -48 R180
SYMATTR InstName M5
SYMATTR Value CMOSP
SYMATTR Value2 l={L5} w={W5} m={M5}
SYMBOL nmos4 32 160 R0
SYMATTR InstName M1
SYMATTR Value CMOSN
SYMATTR Value2 l={L1} w={W1} m={M1}
SYMBOL nmos4 976 320 R0
SYMATTR InstName M6
SYMATTR Value CMOSN
SYMATTR Value2 l={L6} w={W6} m={M6}
SYMBOL nmos4 1296 320 M0
SYMATTR InstName M7
SYMATTR Value CMOSN
SYMATTR Value2 l={L7} w={W7} m={M7}
SYMBOL nmos4 976 -32 R0
SYMATTR InstName M8
SYMATTR Value CMOSN
SYMATTR Value2 l={L8} w={W8} m={M8}
SYMBOL pmos4 1296 112 R180
SYMATTR InstName M9
SYMATTR Value CMOSP
SYMATTR Value2 l={L9} w={W9} m={M9}
SYMBOL pmos4 1200 -96 M180
SYMATTR InstName M10
SYMATTR Value CMOSP
SYMATTR Value2 l={L10} w={W10} m={M10}
SYMBOL nmos4 2032 320 M0
SYMATTR InstName M11
SYMATTR Value CMOSN
SYMATTR Value2 l={L11} w={W11} m={M11}
SYMBOL nmos4 1712 320 R0
SYMATTR InstName M12
SYMATTR Value CMOSN
SYMATTR Value2 l={L12} w={W12} m={M12}
SYMBOL nmos4 2032 -32 M0
SYMATTR InstName M13
SYMATTR Value CMOSN
SYMATTR Value2 l={L13} w={W13} m={M13}
SYMBOL pmos4 1712 112 M180
SYMATTR InstName M14
SYMATTR Value CMOSP
SYMATTR Value2 l={L14} w={W14} m={M14}
SYMBOL pmos4 1808 -96 R180
SYMATTR InstName M15
SYMATTR Value CMOSP
SYMATTR Value2 l={L15} w={W15} m={M15}
TEXT 2352 -856 Left 2 !.param L = 0.18u\n.param L1 = L\n.param W1 = L1*10\n.param M1 = 1\n.param L2 = L\n.param W2 = L2*10\n.param M2 = 1\n.param L3 = L\n.param W3 = L3*10\n.param M3 = 1\n.param L4 = L\n.param W4 = L4*10\n.param M4 = 1\n.param L5 = L\n.param W5 = L5*10\n.param M5 = 1\n.param L6 = L\n.param W6 = L6*10\n.param M6 = 1\n.param L7 = L\n.param W7 = L7*10\n.param M7 = 1\n.param L8 = L\n.param W8 = L8*10\n.param M8 = 1\n.param L9 = L\n.param W9 = L9*10\n.param M9 = 1\n.param L10 = L\n.param W10 = L10*10\n.param M10 = 1\n.param L11 = L\n.param W11 = L11*10\n.param M11 = 1\n.param L12 = L\n.param W12 = L12*10\n.param M12 = 1\n.param L13 = L\n.param W13 = L13*10\n.param M13 = 1\n.param L14 = L\n.param W14 = L14*10\n.param M14 = 1\n.param L15 = L\n.param W15 = L15*10\n.param M15 = 1
TEXT 1760 -640 Left 2 !.include tsmc018.mdl
