Version 4
SHEET 1 1452 680
WIRE 336 224 -304 224
WIRE -32 256 -112 256
WIRE 128 256 -32 256
WIRE 336 256 336 224
WIRE -32 272 -32 256
WIRE 128 304 128 256
WIRE 176 304 128 304
WIRE 240 304 176 304
WIRE 512 304 416 304
WIRE 672 304 512 304
WIRE 736 304 672 304
WIRE 976 304 896 304
WIRE 736 336 736 304
WIRE 752 336 736 336
WIRE 896 336 896 304
WIRE 896 336 880 336
WIRE 176 352 80 352
WIRE 240 352 176 352
WIRE 624 352 416 352
WIRE 672 352 624 352
WIRE 736 352 672 352
WIRE 976 352 896 352
WIRE -96 368 -192 368
WIRE -32 368 -32 352
WIRE -32 368 -96 368
WIRE 736 368 736 352
WIRE 752 368 736 368
WIRE 896 368 896 352
WIRE 896 368 880 368
WIRE -304 384 -304 224
WIRE -192 384 -192 368
WIRE -32 384 -32 368
WIRE 512 384 512 304
WIRE 624 384 624 352
WIRE -96 400 -96 368
WIRE -80 400 -96 400
WIRE 240 400 128 400
WIRE -112 448 -112 256
WIRE -80 448 -112 448
WIRE 336 448 336 416
WIRE 128 464 128 400
WIRE -32 480 -32 464
WIRE 80 480 80 352
WIRE 80 480 -32 480
WIRE -304 496 -304 464
WIRE -192 496 -192 464
WIRE 512 496 512 448
WIRE 624 496 624 448
WIRE 128 576 128 544
FLAG -304 496 0
FLAG -192 496 0
FLAG 128 576 0
FLAG 512 496 0
FLAG 624 496 0
FLAG 336 448 0
FLAG 976 352 VOUTP
FLAG 976 304 VOUTN
FLAG 672 304 VOP
FLAG 672 352 VON
FLAG 176 304 VINP
FLAG 176 352 VINN
SYMBOL voltage 128 448 R0
WINDOW 123 0 0 Left 0
WINDOW 39 0 0 Left 0
SYMATTR InstName CLK
SYMATTR Value PULSE(0 1.8 1n 60p 60p 5n 10n)
SYMBOL voltage -32 256 R0
WINDOW 123 0 0 Left 0
WINDOW 39 0 0 Left 0
WINDOW 3 -163 -59 Left 2
SYMATTR Value PULSE(-25m 25m 0 1000n 0 0 1000n)
SYMATTR InstName VIN
SYMBOL voltage -192 368 R0
WINDOW 123 0 0 Left 0
WINDOW 39 0 0 Left 0
SYMATTR InstName Vcom
SYMATTR Value 0.9
SYMBOL voltage -304 368 R0
WINDOW 123 0 0 Left 0
WINDOW 39 0 0 Left 0
SYMATTR InstName Vdd
SYMATTR Value 1.8
SYMBOL e -32 480 M180
SYMATTR InstName E1
SYMATTR Value -1
SYMBOL cap 496 384 R0
SYMATTR InstName C1
SYMATTR Value 20f
SYMBOL cap 608 384 R0
SYMATTR InstName C2
SYMATTR Value 20f
SYMBOL my_comparator 320 336 R0
SYMATTR InstName X1
SYMBOL ideal_sr 816 352 R0
SYMATTR InstName X3
TEXT 544 144 Left 2 !.op
TEXT 544 80 Left 2 !.ic V(VOP)=0 V(VON)=1.8\n.tran 1000n\n.meas offset find V(VINP,VINN) when V(VOUTP)=0.9
TEXT 544 168 Left 2 !.include "tsmc018.mdl"
