Version 4
SHEET 1 4660 1192
WIRE 2576 -1872 2576 -1920
WIRE 2608 -1872 2608 -1920
WIRE 2896 -1872 2896 -1920
WIRE 2928 -1872 2928 -1920
WIRE 3200 -1872 3200 -1920
WIRE 3232 -1872 3232 -1920
WIRE 3536 -1872 3536 -1920
WIRE 3568 -1872 3568 -1920
WIRE 3872 -1872 3872 -1920
WIRE 3904 -1872 3904 -1920
WIRE 4224 -1872 4224 -1920
WIRE 4256 -1872 4256 -1920
WIRE 2640 -1824 2624 -1824
WIRE 2672 -1824 2640 -1824
WIRE 2960 -1824 2944 -1824
WIRE 2992 -1824 2960 -1824
WIRE 3264 -1824 3248 -1824
WIRE 3296 -1824 3264 -1824
WIRE 3600 -1824 3584 -1824
WIRE 3632 -1824 3600 -1824
WIRE 3936 -1824 3920 -1824
WIRE 3968 -1824 3936 -1824
WIRE 4288 -1824 4272 -1824
WIRE 4320 -1824 4288 -1824
WIRE 4224 -1792 4224 -1808
WIRE 2576 -1776 2576 -1808
WIRE 2608 -1776 2608 -1808
WIRE 2624 -1776 2624 -1808
WIRE 2624 -1776 2608 -1776
WIRE 2640 -1776 2640 -1824
WIRE 2640 -1776 2624 -1776
WIRE 2896 -1776 2896 -1808
WIRE 2928 -1776 2928 -1808
WIRE 2944 -1776 2944 -1808
WIRE 2944 -1776 2928 -1776
WIRE 2960 -1776 2960 -1824
WIRE 2960 -1776 2944 -1776
WIRE 3200 -1776 3200 -1808
WIRE 3232 -1776 3232 -1808
WIRE 3248 -1776 3248 -1808
WIRE 3248 -1776 3232 -1776
WIRE 3264 -1776 3264 -1824
WIRE 3264 -1776 3248 -1776
WIRE 3536 -1776 3536 -1808
WIRE 3568 -1776 3568 -1808
WIRE 3584 -1776 3584 -1808
WIRE 3584 -1776 3568 -1776
WIRE 3600 -1776 3600 -1824
WIRE 3600 -1776 3584 -1776
WIRE 3872 -1776 3872 -1808
WIRE 3904 -1776 3904 -1808
WIRE 3920 -1776 3920 -1808
WIRE 3920 -1776 3904 -1776
WIRE 3936 -1776 3936 -1824
WIRE 3936 -1776 3920 -1776
WIRE 4256 -1776 4256 -1808
WIRE 4272 -1776 4272 -1808
WIRE 4272 -1776 4256 -1776
WIRE 4288 -1776 4288 -1824
WIRE 4288 -1776 4272 -1776
WIRE 2560 -1728 2560 -1808
WIRE 2560 -1728 1792 -1728
WIRE 2880 -1728 2880 -1808
WIRE 2880 -1728 2560 -1728
WIRE 3184 -1728 3184 -1808
WIRE 3184 -1728 2880 -1728
WIRE 3520 -1728 3520 -1808
WIRE 3520 -1728 3184 -1728
WIRE 3856 -1728 3856 -1808
WIRE 3856 -1728 3520 -1728
WIRE 4208 -1728 4208 -1808
WIRE 4208 -1728 3856 -1728
WIRE 2736 -1616 2736 -1632
WIRE 3056 -1616 3056 -1632
WIRE 3376 -1616 3376 -1632
WIRE 3712 -1616 3712 -1632
WIRE 4064 -1616 4064 -1632
WIRE 4416 -1616 4416 -1632
WIRE 2592 -1568 2592 -1808
WIRE 2656 -1568 2592 -1568
WIRE 2848 -1568 2848 -1616
WIRE 2848 -1568 2816 -1568
WIRE 2912 -1568 2912 -1808
WIRE 2976 -1568 2912 -1568
WIRE 3168 -1568 3168 -1616
WIRE 3168 -1568 3136 -1568
WIRE 3216 -1568 3216 -1808
WIRE 3296 -1568 3216 -1568
WIRE 3488 -1568 3488 -1616
WIRE 3488 -1568 3456 -1568
WIRE 3552 -1568 3552 -1808
WIRE 3632 -1568 3552 -1568
WIRE 3824 -1568 3824 -1616
WIRE 3824 -1568 3792 -1568
WIRE 3888 -1568 3888 -1808
WIRE 3984 -1568 3888 -1568
WIRE 4176 -1568 4176 -1616
WIRE 4176 -1568 4144 -1568
WIRE 4240 -1568 4240 -1808
WIRE 4336 -1568 4240 -1568
WIRE 4528 -1568 4528 -1616
WIRE 4528 -1568 4496 -1568
WIRE 2656 -1520 2624 -1520
WIRE 2976 -1520 2944 -1520
WIRE 3296 -1520 3264 -1520
WIRE 3632 -1520 3584 -1520
WIRE 3984 -1520 3952 -1520
WIRE 4336 -1520 4288 -1520
WIRE 2736 -1456 2736 -1472
WIRE 3056 -1456 3056 -1472
WIRE 3376 -1456 3376 -1472
WIRE 3712 -1456 3712 -1472
WIRE 4064 -1456 4064 -1472
WIRE 4416 -1456 4416 -1472
WIRE 2624 -1440 2624 -1520
WIRE 2944 -1440 2944 -1520
WIRE 2944 -1440 2624 -1440
WIRE 3264 -1440 3264 -1520
WIRE 3264 -1440 2944 -1440
WIRE 3584 -1440 3584 -1520
WIRE 3584 -1440 3264 -1440
WIRE 3952 -1440 3952 -1520
WIRE 3952 -1440 3584 -1440
WIRE 4288 -1440 4288 -1520
WIRE 4288 -1440 3952 -1440
WIRE 4448 -1440 4288 -1440
WIRE 2336 -1376 2288 -1376
WIRE 2656 -1376 2336 -1376
WIRE 2992 -1376 2656 -1376
WIRE 3328 -1376 2992 -1376
WIRE 3648 -1376 3328 -1376
WIRE 3984 -1376 3648 -1376
WIRE 2464 -1328 2464 -1344
WIRE 2784 -1328 2784 -1344
WIRE 3120 -1328 3120 -1344
WIRE 3456 -1328 3456 -1344
WIRE 3776 -1328 3776 -1344
WIRE 4128 -1328 4128 -1344
WIRE 2336 -1280 2336 -1376
WIRE 2384 -1280 2336 -1280
WIRE 2592 -1280 2592 -1568
WIRE 2592 -1280 2544 -1280
WIRE 2656 -1280 2656 -1376
WIRE 2704 -1280 2656 -1280
WIRE 2912 -1280 2912 -1568
WIRE 2912 -1280 2864 -1280
WIRE 2992 -1280 2992 -1376
WIRE 3040 -1280 2992 -1280
WIRE 3216 -1280 3216 -1568
WIRE 3216 -1280 3200 -1280
WIRE 3328 -1280 3328 -1376
WIRE 3376 -1280 3328 -1280
WIRE 3552 -1280 3552 -1568
WIRE 3552 -1280 3536 -1280
WIRE 3648 -1280 3648 -1376
WIRE 3696 -1280 3648 -1280
WIRE 3888 -1280 3888 -1568
WIRE 3888 -1280 3856 -1280
WIRE 3984 -1280 3984 -1376
WIRE 4048 -1280 3984 -1280
WIRE 4240 -1280 4240 -1568
WIRE 4240 -1280 4208 -1280
WIRE 2384 -1232 2336 -1232
WIRE 2704 -1232 2656 -1232
WIRE 3040 -1232 2992 -1232
WIRE 3376 -1232 3328 -1232
WIRE 3696 -1232 3648 -1232
WIRE 4048 -1232 4000 -1232
WIRE 1648 -1136 1504 -1136
WIRE 1792 -1136 1792 -1728
WIRE 1792 -1136 1648 -1136
WIRE 2464 -1136 2464 -1184
WIRE 2464 -1136 1792 -1136
WIRE 2784 -1136 2784 -1184
WIRE 2784 -1136 2464 -1136
WIRE 3120 -1136 3120 -1184
WIRE 3120 -1136 2784 -1136
WIRE 3456 -1136 3456 -1184
WIRE 3456 -1136 3120 -1136
WIRE 3776 -1136 3776 -1184
WIRE 3776 -1136 3456 -1136
WIRE 4128 -1136 4128 -1184
WIRE 4128 -1136 3776 -1136
WIRE 4448 -1120 4448 -1440
WIRE 4512 -1120 4448 -1120
WIRE 1648 -992 1648 -1136
WIRE 1984 -992 1984 -1088
WIRE 2304 -992 2304 -1072
WIRE 2336 -992 2336 -1232
WIRE 2624 -992 2624 -1072
WIRE 2656 -992 2656 -1232
WIRE 2960 -992 2960 -1072
WIRE 2992 -992 2992 -1232
WIRE 3296 -992 3296 -1072
WIRE 3328 -992 3328 -1232
WIRE 3616 -992 3616 -1072
WIRE 3648 -992 3648 -1232
WIRE 3968 -992 3968 -1072
WIRE 4000 -992 4000 -1232
WIRE 1712 -944 1696 -944
WIRE 1728 -944 1712 -944
WIRE 2048 -944 2032 -944
WIRE 2064 -944 2048 -944
WIRE 2368 -944 2352 -944
WIRE 2384 -944 2368 -944
WIRE 2688 -944 2672 -944
WIRE 2704 -944 2688 -944
WIRE 3024 -944 3008 -944
WIRE 3040 -944 3024 -944
WIRE 3360 -944 3344 -944
WIRE 3376 -944 3360 -944
WIRE 3680 -944 3664 -944
WIRE 3696 -944 3680 -944
WIRE 4032 -944 4016 -944
WIRE 4048 -944 4032 -944
WIRE 1712 -928 1712 -944
WIRE 1712 -928 1696 -928
WIRE 2048 -928 2048 -944
WIRE 2048 -928 2032 -928
WIRE 2368 -928 2368 -944
WIRE 2368 -928 2352 -928
WIRE 2688 -928 2688 -944
WIRE 2688 -928 2672 -928
WIRE 3024 -928 3024 -944
WIRE 3024 -928 3008 -928
WIRE 3360 -928 3360 -944
WIRE 3360 -928 3344 -928
WIRE 3680 -928 3680 -944
WIRE 3680 -928 3664 -928
WIRE 4032 -928 4032 -944
WIRE 4032 -928 4016 -928
WIRE 1632 -912 1632 -928
WIRE 1664 -912 1664 -928
WIRE 1664 -912 1632 -912
WIRE 1712 -912 1712 -928
WIRE 1712 -912 1664 -912
WIRE 1968 -912 1968 -928
WIRE 2000 -912 2000 -928
WIRE 2000 -912 1968 -912
WIRE 2048 -912 2048 -928
WIRE 2048 -912 2000 -912
WIRE 2288 -912 2288 -928
WIRE 2320 -912 2320 -928
WIRE 2320 -912 2288 -912
WIRE 2368 -912 2368 -928
WIRE 2368 -912 2320 -912
WIRE 2608 -912 2608 -928
WIRE 2640 -912 2640 -928
WIRE 2640 -912 2608 -912
WIRE 2688 -912 2688 -928
WIRE 2688 -912 2640 -912
WIRE 2944 -912 2944 -928
WIRE 2976 -912 2976 -928
WIRE 2976 -912 2944 -912
WIRE 3024 -912 3024 -928
WIRE 3024 -912 2976 -912
WIRE 3280 -912 3280 -928
WIRE 3312 -912 3312 -928
WIRE 3312 -912 3280 -912
WIRE 3360 -912 3360 -928
WIRE 3360 -912 3312 -912
WIRE 3600 -912 3600 -928
WIRE 3632 -912 3632 -928
WIRE 3632 -912 3600 -912
WIRE 3680 -912 3680 -928
WIRE 3680 -912 3632 -912
WIRE 3952 -912 3952 -928
WIRE 3984 -912 3984 -928
WIRE 3984 -912 3952 -912
WIRE 4032 -912 4032 -928
WIRE 4032 -912 3984 -912
WIRE 1680 -896 1680 -928
WIRE 1808 -896 1680 -896
WIRE 2016 -896 2016 -928
WIRE 2144 -896 2016 -896
WIRE 2336 -896 2336 -928
WIRE 2464 -896 2336 -896
WIRE 2656 -896 2656 -928
WIRE 2784 -896 2656 -896
WIRE 2992 -896 2992 -928
WIRE 3120 -896 2992 -896
WIRE 3328 -896 3328 -928
WIRE 3472 -896 3328 -896
WIRE 3648 -896 3648 -928
WIRE 3760 -896 3648 -896
WIRE 4000 -896 4000 -928
WIRE 4112 -896 4000 -896
WIRE 1648 -864 1648 -928
WIRE 1648 -864 1504 -864
WIRE 1984 -864 1984 -928
WIRE 1984 -864 1872 -864
WIRE 2304 -864 2304 -928
WIRE 2304 -864 2192 -864
WIRE 2624 -864 2624 -928
WIRE 2624 -864 2512 -864
WIRE 2960 -864 2960 -928
WIRE 2960 -864 2848 -864
WIRE 3296 -864 3296 -928
WIRE 3296 -864 3184 -864
WIRE 3616 -864 3616 -928
WIRE 3616 -864 3520 -864
WIRE 3968 -864 3968 -928
WIRE 3968 -864 3824 -864
WIRE 1664 -800 1664 -816
WIRE 2000 -800 2000 -816
WIRE 2320 -800 2320 -816
WIRE 2640 -800 2640 -816
WIRE 2976 -800 2976 -816
WIRE 3312 -800 3312 -816
WIRE 3632 -800 3632 -816
WIRE 3984 -800 3984 -816
WIRE 1424 -752 1312 -752
WIRE 1504 -752 1504 -864
WIRE 1504 -752 1424 -752
WIRE 1584 -752 1504 -752
WIRE 1872 -752 1872 -864
WIRE 1872 -752 1744 -752
WIRE 1920 -752 1872 -752
WIRE 2192 -752 2192 -864
WIRE 2192 -752 2080 -752
WIRE 2240 -752 2192 -752
WIRE 2512 -752 2512 -864
WIRE 2512 -752 2400 -752
WIRE 2560 -752 2512 -752
WIRE 2848 -752 2848 -864
WIRE 2848 -752 2720 -752
WIRE 2896 -752 2848 -752
WIRE 3184 -752 3184 -864
WIRE 3184 -752 3056 -752
WIRE 3232 -752 3184 -752
WIRE 3520 -752 3520 -864
WIRE 3520 -752 3392 -752
WIRE 3552 -752 3520 -752
WIRE 3824 -752 3824 -864
WIRE 3824 -752 3712 -752
WIRE 3904 -752 3824 -752
WIRE 4128 -752 4064 -752
WIRE 4208 -752 4128 -752
WIRE 4448 -752 4448 -1120
WIRE 4448 -752 4368 -752
WIRE 1312 -736 1312 -752
WIRE 1584 -704 1536 -704
WIRE 1808 -704 1808 -896
WIRE 1808 -704 1760 -704
WIRE 1920 -704 1872 -704
WIRE 2128 -704 2096 -704
WIRE 2144 -704 2144 -896
WIRE 2144 -704 2128 -704
WIRE 2240 -704 2192 -704
WIRE 2464 -704 2464 -896
WIRE 2464 -704 2416 -704
WIRE 2560 -704 2512 -704
WIRE 2784 -704 2784 -896
WIRE 2784 -704 2736 -704
WIRE 2896 -704 2848 -704
WIRE 3120 -704 3120 -896
WIRE 3120 -704 3072 -704
WIRE 3232 -704 3184 -704
WIRE 3472 -704 3472 -896
WIRE 3472 -704 3408 -704
WIRE 3552 -704 3488 -704
WIRE 3760 -704 3760 -896
WIRE 3760 -704 3728 -704
WIRE 3904 -704 3840 -704
WIRE 4112 -704 4112 -896
WIRE 4112 -704 4080 -704
WIRE 4208 -704 4176 -704
WIRE 4288 -640 4288 -656
WIRE 1312 -624 1312 -656
WIRE 1664 -608 1664 -656
WIRE 2320 -608 2320 -656
WIRE 2320 -608 1664 -608
WIRE 2640 -608 2640 -656
WIRE 2640 -608 2320 -608
WIRE 2976 -608 2976 -656
WIRE 2976 -608 2640 -608
WIRE 3312 -608 3312 -656
WIRE 3312 -608 2976 -608
WIRE 3632 -608 3632 -656
WIRE 3632 -608 3312 -608
WIRE 3984 -608 3984 -656
WIRE 3984 -608 3632 -608
WIRE 4448 -608 4448 -752
WIRE 4448 -608 3984 -608
WIRE 1536 -560 1536 -704
WIRE 1536 -560 1488 -560
WIRE 1872 -560 1872 -704
WIRE 1872 -560 1536 -560
WIRE 2192 -560 2192 -704
WIRE 2192 -560 1872 -560
WIRE 2512 -560 2512 -704
WIRE 2512 -560 2192 -560
WIRE 2848 -560 2848 -704
WIRE 2848 -560 2512 -560
WIRE 3184 -560 3184 -704
WIRE 3184 -560 2848 -560
WIRE 3488 -560 3488 -704
WIRE 3488 -560 3184 -560
WIRE 3840 -560 3840 -704
WIRE 3840 -560 3488 -560
WIRE 3936 -560 3840 -560
WIRE 4176 -560 4176 -704
WIRE 4176 -560 4000 -560
WIRE 2000 -512 2000 -656
WIRE 4128 -512 4128 -752
WIRE 4128 -512 2000 -512
WIRE 1088 -464 928 -464
WIRE 2128 -464 2128 -704
WIRE 2176 -464 2128 -464
WIRE 3936 -464 3936 -544
WIRE 1088 -320 1088 -464
WIRE 416 -224 304 -224
WIRE 1088 -208 1088 -240
WIRE 2064 -208 1920 -208
WIRE 2000 -176 1920 -176
WIRE 2160 -176 2000 -176
WIRE 2352 -176 2224 -176
WIRE 928 -160 928 -464
WIRE 2000 -144 1920 -144
WIRE 704 -112 624 -112
WIRE 832 -112 784 -112
WIRE 1056 -112 1008 -112
WIRE 2000 -112 1920 -112
WIRE 624 -96 624 -112
WIRE 2000 -80 1920 -80
WIRE -1664 -64 -2032 -64
WIRE -1296 -64 -1664 -64
WIRE -896 -64 -1296 -64
WIRE -512 -64 -896 -64
WIRE -112 -64 -512 -64
WIRE 272 -64 -112 -64
WIRE 464 -64 464 -208
WIRE 464 -64 272 -64
WIRE 704 -64 464 -64
WIRE 832 -64 784 -64
WIRE 1280 -64 1008 -64
WIRE 2000 -48 1920 -48
WIRE 832 -16 752 -16
WIRE 2000 -16 1920 -16
WIRE 2000 16 1920 16
WIRE 928 32 928 0
WIRE 1280 32 1184 32
WIRE 2000 48 1920 48
WIRE -2032 80 -2032 -64
WIRE -1664 80 -1664 -64
WIRE -1296 80 -1296 -64
WIRE -896 80 -896 -64
WIRE -512 80 -512 -64
WIRE -112 80 -112 -64
WIRE 272 80 272 -64
WIRE 2000 80 1920 80
WIRE 2000 112 1920 112
WIRE 2000 144 1920 144
WIRE 2000 176 1920 176
WIRE 560 192 464 192
WIRE 560 208 464 208
WIRE 2000 208 1920 208
WIRE 560 224 544 224
WIRE -2032 240 -2032 144
WIRE -2032 240 -2112 240
WIRE -1936 240 -2032 240
WIRE -1664 240 -1664 144
WIRE -1664 240 -1744 240
WIRE -1568 240 -1664 240
WIRE -1296 240 -1296 144
WIRE -1296 240 -1376 240
WIRE -1200 240 -1296 240
WIRE -896 240 -896 144
WIRE -896 240 -976 240
WIRE -800 240 -896 240
WIRE -512 240 -512 144
WIRE -512 240 -592 240
WIRE -416 240 -512 240
WIRE -112 240 -112 144
WIRE -112 240 -192 240
WIRE -16 240 -112 240
WIRE 272 240 272 144
WIRE 272 240 192 240
WIRE 368 240 272 240
WIRE 544 240 544 224
WIRE 560 240 544 240
WIRE 752 240 752 -16
WIRE 752 240 624 240
WIRE 2000 240 1920 240
WIRE -2112 272 -2112 240
WIRE -1936 272 -1936 240
WIRE -1744 272 -1744 240
WIRE -1568 272 -1568 240
WIRE -1376 272 -1376 240
WIRE -1200 272 -1200 240
WIRE -976 272 -976 240
WIRE -800 272 -800 240
WIRE -592 272 -592 240
WIRE -416 272 -416 240
WIRE -192 272 -192 240
WIRE -16 272 -16 240
WIRE 192 272 192 240
WIRE 368 272 368 240
WIRE 544 272 544 240
WIRE 560 272 560 256
WIRE 560 272 544 272
WIRE 576 272 576 256
WIRE 576 272 560 272
WIRE 2000 272 1920 272
WIRE 576 304 576 272
WIRE 2000 304 1920 304
WIRE 2000 336 1920 336
WIRE -2160 368 -2160 336
WIRE -1984 368 -1984 336
WIRE -1792 368 -1792 336
WIRE -1616 368 -1616 336
WIRE -1424 368 -1424 336
WIRE -1248 368 -1248 336
WIRE -1024 368 -1024 336
WIRE -848 368 -848 336
WIRE -640 368 -640 336
WIRE -464 368 -464 336
WIRE -240 368 -240 336
WIRE -64 368 -64 336
WIRE 144 368 144 336
WIRE 320 368 320 336
WIRE 2000 368 1920 368
WIRE -2112 384 -2112 352
WIRE -1744 384 -1744 352
WIRE -1376 384 -1376 352
WIRE -976 384 -976 352
WIRE -592 384 -592 352
WIRE -192 384 -192 352
WIRE 192 384 192 352
WIRE 2000 400 1920 400
WIRE 2000 432 1920 432
WIRE -1936 496 -1936 352
WIRE -1568 496 -1568 352
WIRE -1568 496 -1936 496
WIRE -1200 496 -1200 352
WIRE -1200 496 -1568 496
WIRE -800 496 -800 352
WIRE -800 496 -1200 496
WIRE -416 496 -416 352
WIRE -416 496 -800 496
WIRE -16 496 -16 352
WIRE -16 496 -416 496
WIRE 368 496 368 352
WIRE 368 496 -16 496
WIRE 592 496 368 496
WIRE 688 496 592 496
WIRE 912 496 768 496
WIRE 912 512 912 496
WIRE 752 592 752 544
WIRE 912 624 912 592
WIRE 1456 656 1456 592
WIRE -16 736 -16 672
WIRE 1456 784 1456 736
WIRE -16 896 -16 816
WIRE 592 896 592 496
WIRE 704 896 592 896
WIRE 848 896 784 896
WIRE 864 896 848 896
WIRE 864 912 864 896
WIRE 768 1008 768 944
WIRE 864 1024 864 992
FLAG 192 384 0
FLAG 320 288 0
FLAG 144 288 0
FLAG 320 368 SW5
FLAG 144 368 SW5B
FLAG -192 384 0
FLAG -64 288 0
FLAG -240 288 0
FLAG -64 368 SW4
FLAG -240 368 SW4B
FLAG -592 384 0
FLAG -464 288 0
FLAG -640 288 0
FLAG -464 368 SW3
FLAG -640 368 SW3B
FLAG -976 384 0
FLAG -848 288 0
FLAG -1024 288 0
FLAG -848 368 SW2
FLAG -1024 368 SW2B
FLAG -1376 384 0
FLAG -1248 288 0
FLAG -1424 288 0
FLAG -1248 368 SW1
FLAG -1424 368 SW1B
FLAG -1744 384 0
FLAG -1616 288 0
FLAG -1792 288 0
FLAG -1616 368 SW0
FLAG -1792 368 SW0B
FLAG -2112 384 0
FLAG -1984 288 0
FLAG -2160 288 0
FLAG -1984 368 Sample
FLAG -2160 368 COMP_ENB
FLAG 704 544 0
FLAG 752 592 COMP_ENB
FLAG 720 944 0
FLAG 768 1008 Sample
FLAG 912 624 0
FLAG -16 896 0
FLAG -16 672 CLK
FLAG 864 1024 0
FLAG 464 -288 0
FLAG 416 -272 0
FLAG 304 -224 Sample
FLAG 576 304 0
FLAG 464 192 CLK
FLAG 464 208 COMP_EN
FLAG 1184 32 CLK
FLAG 2000 -176 COMP_EN
FLAG 2000 -144 Q00
FLAG 2000 -112 Q01
FLAG 2000 -80 Q02
FLAG 2000 -48 Q03
FLAG 2000 -16 Q04
FLAG 2000 16 Q05
FLAG 2000 48 Sample
FLAG 2000 80 SW0
FLAG 2000 112 SW0B
FLAG 2000 144 SW1
FLAG 2000 176 SW1B
FLAG 2000 208 SW2
FLAG 2000 240 SW2B
FLAG 2000 272 SW3
FLAG 2000 304 SW3B
FLAG 2000 336 SW4
FLAG 2000 368 SW4B
FLAG 2000 400 SW5
FLAG 2000 432 SW5B
FLAG 2352 -176 COMP_ENB
FLAG 2160 -160 0
FLAG 1456 784 0
FLAG 1456 592 DOUT
FLAG 624 -96 0
FLAG 2064 -208 CLR
FLAG 2672 -1824 0
FLAG 2464 -1344 0
FLAG 2784 -1344 0
FLAG 3120 -1344 0
FLAG 3456 -1344 0
FLAG 3776 -1344 0
FLAG 4128 -1344 0
FLAG 2736 -1632 0
FLAG 3056 -1632 0
FLAG 3376 -1632 0
FLAG 3712 -1632 0
FLAG 4064 -1632 0
FLAG 4416 -1632 0
FLAG 2736 -1456 0
FLAG 3056 -1456 0
FLAG 3376 -1456 0
FLAG 3712 -1456 0
FLAG 4064 -1456 0
FLAG 4416 -1456 0
FLAG 1728 -944 0
FLAG 1664 -816 0
FLAG 2000 -816 0
FLAG 2320 -816 0
FLAG 2640 -816 0
FLAG 2976 -816 0
FLAG 3312 -816 0
FLAG 3632 -816 0
FLAG 3984 -816 0
FLAG 2064 -944 0
FLAG 2384 -944 0
FLAG 2704 -944 0
FLAG 3040 -944 0
FLAG 3376 -944 0
FLAG 3696 -944 0
FLAG 4048 -944 0
FLAG 2992 -1824 0
FLAG 3296 -1824 0
FLAG 3632 -1824 0
FLAG 3968 -1824 0
FLAG 4320 -1824 0
FLAG 1488 -560 CLK
IOPIN 1488 -560 In
FLAG 2288 -1376 COMP_IN
IOPIN 2288 -1376 In
FLAG 2176 -464 COMP_EN
IOPIN 2176 -464 Out
FLAG 1312 -624 0
FLAG 4288 -640 0
FLAG 3936 -464 0
FLAG 1504 -1136 Sample
IOPIN 1504 -1136 Out
FLAG 2304 -1072 D6
FLAG 2624 -1072 D5
FLAG 2960 -1072 D4
FLAG 3296 -1072 D3
FLAG 3616 -1072 D2
FLAG 3968 -1072 D1
FLAG 2848 -1616 Q05
IOPIN 2848 -1616 Out
FLAG 3168 -1616 Q04
IOPIN 3168 -1616 Out
FLAG 3488 -1616 Q03
IOPIN 3488 -1616 Out
FLAG 3824 -1616 Q02
IOPIN 3824 -1616 Out
FLAG 4176 -1616 Q01
IOPIN 4176 -1616 Out
FLAG 4528 -1616 Q00
IOPIN 4528 -1616 Out
FLAG 2576 -1776 D6
FLAG 2896 -1776 D5
FLAG 3200 -1776 D4
FLAG 3536 -1776 D3
FLAG 3872 -1776 D2
FLAG 4224 -1792 D1
FLAG 2576 -1920 SW5
IOPIN 2576 -1920 Out
FLAG 2608 -1920 SW5B
IOPIN 2608 -1920 Out
FLAG 2896 -1920 SW4
IOPIN 2896 -1920 Out
FLAG 2928 -1920 SW4B
IOPIN 2928 -1920 Out
FLAG 3200 -1920 SW3
IOPIN 3200 -1920 Out
FLAG 3232 -1920 SW3B
IOPIN 3232 -1920 Out
FLAG 3536 -1920 SW2
IOPIN 3536 -1920 Out
FLAG 3568 -1920 SW2B
IOPIN 3568 -1920 Out
FLAG 3872 -1920 SW1
IOPIN 3872 -1920 Out
FLAG 3904 -1920 SW1B
IOPIN 3904 -1920 Out
FLAG 4224 -1920 SW0
IOPIN 4224 -1920 Out
FLAG 4256 -1920 SW0B
IOPIN 4256 -1920 Out
FLAG 1424 -752 TIHI
FLAG 1984 -1088 N0V
FLAG 4512 -1120 CLR
IOPIN 4512 -1120 Out
FLAG 1280 32 CLK
IOPIN 1280 32 In
FLAG 1280 -64 outn
IOPIN 1280 -64 In
FLAG 1920 -208 CLR
IOPIN 1920 -208 Out
FLAG 1920 -176 COMP_EN
IOPIN 1920 -176 Out
FLAG 1920 -144 Q00
IOPIN 1920 -144 Out
FLAG 1920 -112 Q01
IOPIN 1920 -112 Out
FLAG 1920 -80 Q02
IOPIN 1920 -80 Out
FLAG 1920 -48 Q03
IOPIN 1920 -48 Out
FLAG 1920 -16 Q04
IOPIN 1920 -16 Out
FLAG 1920 16 Q05
IOPIN 1920 16 Out
FLAG 1920 48 Sample
IOPIN 1920 48 Out
FLAG 1920 80 SW0
IOPIN 1920 80 Out
FLAG 1920 112 SW0B
IOPIN 1920 112 Out
FLAG 1920 144 SW1
IOPIN 1920 144 Out
FLAG 1920 176 SW1B
IOPIN 1920 176 Out
FLAG 1920 208 SW2
IOPIN 1920 208 Out
FLAG 1920 240 SW2B
IOPIN 1920 240 Out
FLAG 1920 272 SW3
IOPIN 1920 272 Out
FLAG 1920 304 SW3B
IOPIN 1920 304 Out
FLAG 1920 336 SW4
IOPIN 1920 336 Out
FLAG 1920 368 SW4B
IOPIN 1920 368 Out
FLAG 1920 400 SW5
IOPIN 1920 400 Out
FLAG 1920 432 SW5B
IOPIN 1920 432 Out
FLAG 1088 -208 0
FLAG 928 32 0
FLAG 1056 -112 COMP_IN
IOPIN 1056 -112 Out
FLAG 848 896 Vin
SYMBOL cap 256 80 R0
SYMATTR InstName C1
SYMATTR Value 320f
SYMBOL sw 368 256 R0
SYMATTR InstName S1
SYMBOL sw 192 256 R0
SYMATTR InstName S2
SYMBOL cap -128 80 R0
SYMATTR InstName C2
SYMATTR Value 160f
SYMBOL sw -16 256 R0
SYMATTR InstName S3
SYMBOL sw -192 256 R0
SYMATTR InstName S4
SYMBOL cap -528 80 R0
SYMATTR InstName C3
SYMATTR Value 80f
SYMBOL sw -416 256 R0
SYMATTR InstName S5
SYMBOL sw -592 256 R0
SYMATTR InstName S6
SYMBOL cap -912 80 R0
SYMATTR InstName C4
SYMATTR Value 40f
SYMBOL sw -800 256 R0
SYMATTR InstName S7
SYMBOL sw -976 256 R0
SYMATTR InstName S8
SYMBOL cap -1312 80 R0
SYMATTR InstName C5
SYMATTR Value 20f
SYMBOL sw -1200 256 R0
SYMATTR InstName S9
SYMBOL sw -1376 256 R0
SYMATTR InstName S10
SYMBOL cap -1680 80 R0
SYMATTR InstName C6
SYMATTR Value 10f
SYMBOL sw -1568 256 R0
SYMATTR InstName S11
SYMBOL sw -1744 256 R0
SYMATTR InstName S12
SYMBOL cap -2048 80 R0
SYMATTR InstName C7
SYMATTR Value 10f
SYMBOL sw -1936 256 R0
SYMATTR InstName S13
SYMBOL sw -2112 256 R0
SYMATTR InstName S14
SYMBOL sw 672 496 R270
SYMATTR InstName S15
SYMBOL sw 688 896 R270
SYMATTR InstName S16
SYMBOL voltage -16 720 R0
WINDOW 123 0 0 Left 0
WINDOW 39 0 0 Left 0
SYMATTR InstName V1
SYMATTR Value PULSE(0 {Vhigh} 0 30p 30p 5.555n 11.11n)
SYMBOL voltage 912 496 R0
WINDOW 123 0 0 Left 0
WINDOW 39 0 0 Left 0
SYMATTR InstName V2
SYMATTR Value {Vhigh}
SYMBOL voltage 864 896 R0
WINDOW 123 0 0 Left 0
WINDOW 39 0 0 Left 0
WINDOW 3 24 46 Left 2
SYMATTR Value SINE(0.5 0.5 500k 0 0 0 0)
SYMATTR InstName V3
SYMBOL sw 464 -304 R0
SYMATTR InstName S17
SYMBOL Digital\\or 592 160 R0
SYMATTR InstName A1
SYMATTR SpiceLine Trise={Trise} Td={Td} Vhigh={Vhigh}
SYMBOL Digital\\inv 2160 -240 R0
SYMATTR InstName A2
SYMATTR SpiceLine Vt=.5 Vh=0.1 Trise={Trise} Vhigh={Vhigh}
SYMBOL bv 1456 640 R0
SYMATTR InstName B1
SYMATTR Value V=32*V(Q05)+16*V(Q04)+8*V(Q03)+4*V(Q02)+2*V(Q01)+V(Q00)
SYMBOL Digital\\dflop 1664 -800 R0
SYMATTR InstName A3
SYMATTR SpiceLine Vhigh={Vhigh} Vlow={Vlow} Td={Td} Trise={Trise}
SYMBOL Digital\\and 1600 -960 R270
SYMATTR InstName A4
SYMATTR SpiceLine Trise={Trise} Td={Td} Vhigh={Vhigh}
SYMBOL Digital\\or 2528 -1840 R270
SYMATTR InstName A5
SYMATTR SpiceLine Trise={Trise} Td={Td} Vhigh={Vhigh}
SYMBOL voltage 1312 -752 R0
WINDOW 123 0 0 Left 0
WINDOW 39 0 0 Left 0
SYMATTR InstName V4
SYMATTR Value {Vhigh}
SYMBOL Digital\\inv 3936 -624 R0
SYMATTR InstName A6
SYMATTR SpiceLine Trise={Trise} Vhigh={Vhigh}
SYMBOL Digital\\dflop 2000 -800 R0
SYMATTR InstName A7
SYMATTR SpiceLine Vhigh={Vhigh} Vlow={Vlow} Td={Td} Trise={Trise}
SYMBOL Digital\\dflop 2320 -800 R0
SYMATTR InstName A8
SYMATTR SpiceLine Vhigh={Vhigh} Vlow={Vlow} Td={Td} Trise={Trise}
SYMBOL Digital\\dflop 2640 -800 R0
SYMATTR InstName A9
SYMATTR SpiceLine Vhigh={Vhigh} Vlow={Vlow} Td={Td} Trise={Trise}
SYMBOL Digital\\dflop 2976 -800 R0
SYMATTR InstName A10
SYMATTR SpiceLine Vhigh={Vhigh} Vlow={Vlow} Td={Td} Trise={Trise}
SYMBOL Digital\\dflop 3312 -800 R0
SYMATTR InstName A11
SYMATTR SpiceLine Vhigh={Vhigh} Vlow={Vlow} Td={Td} Trise={Trise}
SYMBOL Digital\\dflop 3632 -800 R0
SYMATTR InstName A12
SYMATTR SpiceLine Vhigh={Vhigh} Vlow={Vlow} Td={Td} Trise={Trise}
SYMBOL Digital\\dflop 3984 -800 R0
SYMATTR InstName A13
SYMATTR SpiceLine Vhigh={Vhigh} Vlow={Vlow} Td={Td} Trise={Trise}
SYMBOL Digital\\dflop 4288 -800 R0
SYMATTR InstName A14
SYMATTR SpiceLine Vhigh={Vhigh} Vlow={Vlow} Td={Td} Trise={Trise}
SYMBOL Digital\\dflop 2464 -1328 R0
SYMATTR InstName A15
SYMATTR SpiceLine Vhigh={Vhigh} Vlow={Vlow} Td={Td} Trise={Trise}
SYMBOL Digital\\dflop 2784 -1328 R0
SYMATTR InstName A16
SYMATTR SpiceLine Vhigh={Vhigh} Vlow={Vlow} Td={Td} Trise={Trise}
SYMBOL Digital\\dflop 3120 -1328 R0
SYMATTR InstName A17
SYMATTR SpiceLine Vhigh={Vhigh} Vlow={Vlow} Td={Td} Trise={Trise}
SYMBOL Digital\\dflop 3456 -1328 R0
SYMATTR InstName A18
SYMATTR SpiceLine Vhigh={Vhigh} Vlow={Vlow} Td={Td} Trise={Trise}
SYMBOL Digital\\dflop 3776 -1328 R0
SYMATTR InstName A19
SYMATTR SpiceLine Vhigh={Vhigh} Vlow={Vlow} Td={Td} Trise={Trise}
SYMBOL Digital\\dflop 4128 -1328 R0
SYMATTR InstName A20
SYMATTR SpiceLine Vhigh={Vhigh} Vlow={Vlow} Td={Td} Trise={Trise}
SYMBOL Digital\\dflop 2736 -1616 R0
SYMATTR InstName A21
SYMATTR SpiceLine Vhigh={Vhigh} Vlow={Vlow} Td={Td} Trise={Trise}
SYMBOL Digital\\dflop 3056 -1616 R0
SYMATTR InstName A22
SYMATTR SpiceLine Vhigh={Vhigh} Vlow={Vlow} Td={Td} Trise={Trise}
SYMBOL Digital\\dflop 3376 -1616 R0
SYMATTR InstName A23
SYMATTR SpiceLine Vhigh={Vhigh} Vlow={Vlow} Td={Td} Trise={Trise}
SYMBOL Digital\\dflop 3712 -1616 R0
SYMATTR InstName A24
SYMATTR SpiceLine Vhigh={Vhigh} Vlow={Vlow} Td={Td} Trise={Trise}
SYMBOL Digital\\dflop 4064 -1616 R0
SYMATTR InstName A25
SYMATTR SpiceLine Vhigh={Vhigh} Vlow={Vlow} Td={Td} Trise={Trise}
SYMBOL Digital\\dflop 4416 -1616 R0
SYMATTR InstName A26
SYMATTR SpiceLine Vhigh={Vhigh} Vlow={Vlow} Td={Td} Trise={Trise}
SYMBOL Digital\\and 1936 -960 R270
SYMATTR InstName A27
SYMATTR SpiceLine Trise={Trise} Td={Td} Vhigh={Vhigh}
SYMBOL Digital\\and 2256 -960 R270
SYMATTR InstName A28
SYMATTR SpiceLine Trise={Trise} Td={Td} Vhigh={Vhigh}
SYMBOL Digital\\and 2576 -960 R270
SYMATTR InstName A29
SYMATTR SpiceLine Trise={Trise} Td={Td} Vhigh={Vhigh}
SYMBOL Digital\\and 2912 -960 R270
SYMATTR InstName A30
SYMATTR SpiceLine Trise={Trise} Td={Td} Vhigh={Vhigh}
SYMBOL Digital\\and 3248 -960 R270
SYMATTR InstName A31
SYMATTR SpiceLine Trise={Trise} Td={Td} Vhigh={Vhigh}
SYMBOL Digital\\and 3568 -960 R270
SYMATTR InstName A32
SYMATTR SpiceLine Trise={Trise} Td={Td} Vhigh={Vhigh}
SYMBOL Digital\\and 3920 -960 R270
SYMATTR InstName A33
SYMATTR SpiceLine Trise={Trise} Td={Td} Vhigh={Vhigh}
SYMBOL Digital\\or 2848 -1840 R270
SYMATTR InstName A34
SYMATTR SpiceLine Trise={Trise} Td={Td} Vhigh={Vhigh}
SYMBOL Digital\\or 3152 -1840 R270
SYMATTR InstName A35
SYMATTR SpiceLine Trise={Trise} Td={Td} Vhigh={Vhigh}
SYMBOL Digital\\or 3488 -1840 R270
SYMATTR InstName A36
SYMATTR SpiceLine Trise={Trise} Td={Td} Vhigh={Vhigh}
SYMBOL Digital\\or 3824 -1840 R270
SYMATTR InstName A37
SYMATTR SpiceLine Trise={Trise} Td={Td} Vhigh={Vhigh}
SYMBOL Digital\\or 4176 -1840 R270
SYMATTR InstName A38
SYMATTR SpiceLine Trise={Trise} Td={Td} Vhigh={Vhigh}
SYMBOL my_comparator 912 -80 R0
SYMATTR InstName X1
SYMBOL voltage 1088 -336 R0
WINDOW 123 0 0 Left 0
WINDOW 39 0 0 Left 0
SYMATTR InstName V5
SYMATTR Value 1.8
SYMBOL voltage 800 -112 R90
WINDOW 0 -32 56 VBottom 2
WINDOW 3 32 56 VTop 2
WINDOW 123 0 0 Left 0
WINDOW 39 0 0 Left 0
SYMATTR InstName V6
SYMATTR Value {common}
SYMBOL voltage 800 -64 R90
WINDOW 0 -32 56 VBottom 2
WINDOW 3 32 56 VTop 2
WINDOW 123 0 0 Left 0
WINDOW 39 0 0 Left 0
SYMATTR InstName V7
SYMATTR Value {common}
TEXT -1008 824 Left 2 !.tran 13u
TEXT -1008 872 Left 2 !.model SW SW(Ron=0.1 Roff=1G Vt=.5 Vh=-.4)
TEXT -1008 928 Left 2 !.meas tran reg1 find V(DOUT) AT=200n
TEXT -1008 712 Left 2 !.param Trise=0.01n\n.param Td=Trise
TEXT -680 648 Left 2 !.param Vhigh=1\n.param Vlow=0
TEXT 1248 888 Left 2 !*PULSE(0 {Vhigh} 0 12.8u 0 0.2u 13u)
TEXT -1008 648 Left 2 !.param common = 0.9
TEXT 1272 944 Left 2 !*SINE(0.5 0.5 500k 0 0 0 0)
