Version 4
SHEET 1 880 680
WIRE 240 80 -400 80
WIRE -128 112 -208 112
WIRE 32 112 -128 112
WIRE 240 112 240 80
WIRE -128 128 -128 112
WIRE 32 160 32 112
WIRE 144 160 32 160
WIRE 416 160 320 160
WIRE 640 160 416 160
WIRE 144 208 -16 208
WIRE 528 208 320 208
WIRE 640 208 528 208
WIRE -192 224 -288 224
WIRE -128 224 -128 208
WIRE -128 224 -192 224
WIRE -400 240 -400 80
WIRE -288 240 -288 224
WIRE -128 240 -128 224
WIRE 416 240 416 160
WIRE 528 240 528 208
WIRE -192 256 -192 224
WIRE -176 256 -192 256
WIRE 144 256 32 256
WIRE -208 304 -208 112
WIRE -176 304 -208 304
WIRE 240 304 240 272
WIRE 32 320 32 256
WIRE -128 336 -128 320
WIRE -16 336 -16 208
WIRE -16 336 -128 336
WIRE -400 352 -400 320
WIRE -288 352 -288 320
WIRE 416 352 416 304
WIRE 528 352 528 304
WIRE 32 432 32 400
FLAG -400 352 0
FLAG -288 352 0
FLAG 32 432 0
FLAG 416 352 0
FLAG 528 352 0
FLAG 240 304 0
FLAG 640 160 VOUTP
FLAG 640 208 VOUTN
SYMBOL voltage 32 304 R0
WINDOW 123 0 0 Left 0
WINDOW 39 0 0 Left 0
SYMATTR InstName V1
SYMATTR Value PULSE(0 1.8 1n 60p 60p 5n 10n 0)
SYMBOL voltage -128 112 R0
WINDOW 123 0 0 Left 0
WINDOW 39 0 0 Left 0
SYMATTR InstName VIN
SYMATTR Value {VIN}
SYMBOL voltage -288 224 R0
WINDOW 123 0 0 Left 0
WINDOW 39 0 0 Left 0
SYMATTR InstName V4
SYMATTR Value 0.6
SYMBOL voltage -400 224 R0
WINDOW 123 0 0 Left 0
WINDOW 39 0 0 Left 0
SYMATTR InstName V5
SYMATTR Value 1.8
SYMBOL e -128 336 M180
SYMATTR InstName E1
SYMATTR Value -1
SYMBOL cap 400 240 R0
SYMATTR InstName C1
SYMATTR Value 10f
SYMBOL cap 512 240 R0
SYMATTR InstName C2
SYMATTR Value 10f
SYMBOL my_comparator 224 192 R0
SYMATTR InstName X1
TEXT -112 -216 Left 2 !.step dec param VIN 0.1m 10m
TEXT -112 -176 Left 2 !.tran 40n
TEXT -112 -112 Left 2 !.meas tl when V(VOUTP) = 1.72
TEXT 272 0 Left 2 !.op
