Version 4
SHEET 1 1076 680
WIRE 576 -608 576 -704
WIRE 112 -560 96 -560
WIRE 480 -560 192 -560
WIRE 848 -560 656 -560
WIRE 112 -512 96 -512
WIRE 480 -512 192 -512
WIRE 848 -512 656 -512
WIRE 480 -464 368 -464
WIRE 576 -336 576 -448
WIRE 416 16 416 -64
WIRE 784 16 784 -64
WIRE -208 144 -208 80
WIRE -496 160 -496 80
WIRE 80 160 80 80
WIRE 416 160 416 96
WIRE 784 160 784 96
WIRE -496 304 -496 240
WIRE -208 304 -208 224
WIRE 80 304 80 240
FLAG -496 80 VDD
IOPIN -496 80 In
FLAG -208 80 VSS
IOPIN -208 80 In
FLAG 80 80 CLK
IOPIN 80 80 In
FLAG 416 -64 VINN
IOPIN 416 -64 In
FLAG 784 -64 VINP
IOPIN 784 -64 In
FLAG -496 304 0
FLAG -208 304 0
FLAG 80 304 0
FLAG 416 160 0
FLAG 784 160 0
FLAG 96 -560 VINP
IOPIN 96 -560 In
FLAG 96 -512 VINN
IOPIN 96 -512 In
FLAG 368 -464 CLK
IOPIN 368 -464 In
FLAG 576 -336 VSS
IOPIN 576 -336 In
FLAG 576 -704 VDD
IOPIN 576 -704 In
FLAG 848 -560 VOUTP
IOPIN 848 -560 Out
FLAG 848 -512 VOUTN
IOPIN 848 -512 Out
SYMBOL voltage -496 144 R0
WINDOW 123 0 0 Left 0
WINDOW 39 0 0 Left 0
SYMATTR InstName V1
SYMATTR Value 1.8
SYMBOL voltage -208 128 R0
WINDOW 123 0 0 Left 0
WINDOW 39 0 0 Left 0
SYMATTR InstName V2
SYMATTR Value 0
SYMBOL voltage 80 144 R0
WINDOW 123 0 0 Left 0
WINDOW 39 0 0 Left 0
SYMATTR InstName V3
SYMATTR Value PULSE(0 1.8 1n 60p 60p 250P 500p)
SYMBOL voltage 416 0 R0
WINDOW 123 0 0 Left 0
WINDOW 39 0 0 Left 0
SYMATTR InstName V4
SYMATTR Value SINE(0 1 100Meg 1n)
SYMBOL voltage 784 0 R0
WINDOW 123 0 0 Left 0
WINDOW 39 0 0 Left 0
SYMATTR InstName V5
SYMATTR Value 0
SYMBOL my_comparator 560 -528 R0
SYMATTR InstName X1
SYMBOL voltage 208 -512 R90
WINDOW 0 -32 56 VBottom 2
WINDOW 3 32 56 VTop 2
WINDOW 123 0 0 Left 0
WINDOW 39 0 0 Left 0
SYMATTR InstName V7
SYMATTR Value {common}
SYMBOL voltage 208 -560 R90
WINDOW 0 -32 56 VBottom 2
WINDOW 3 32 56 VTop 2
WINDOW 123 0 0 Left 0
WINDOW 39 0 0 Left 0
SYMATTR InstName V6
SYMATTR Value {common}
TEXT -598 336 Left 2 !.tran 40n
TEXT 688 -608 Left 2 !.param common = 0.9
