Version 4
SHEET 1 1348 680
WIRE 128 112 128 48
WIRE 864 112 560 112
WIRE 896 112 864 112
WIRE 928 112 896 112
WIRE 1104 112 928 112
WIRE 80 144 -192 144
WIRE 864 144 864 112
WIRE 768 160 560 160
WIRE 816 160 768 160
WIRE -192 176 -192 144
WIRE 240 176 176 176
WIRE 368 176 368 144
WIRE 896 192 896 112
WIRE 896 192 864 192
WIRE 80 208 -96 208
WIRE -96 240 -96 208
WIRE 1104 240 1104 112
WIRE 1136 240 1104 240
WIRE 1104 272 1104 240
WIRE -192 288 -192 256
WIRE 128 288 128 240
WIRE 368 288 368 256
WIRE 864 288 864 240
WIRE 1056 288 992 288
WIRE 592 304 560 304
WIRE 816 304 592 304
WIRE 1136 320 1136 240
WIRE 1136 320 1104 320
WIRE 928 336 928 112
WIRE 928 336 864 336
WIRE -96 352 -96 320
WIRE 992 400 992 288
WIRE 992 400 928 400
WIRE 1104 400 1104 368
WIRE 1248 400 1104 400
WIRE 1104 416 1104 400
WIRE 864 432 864 384
WIRE 864 432 672 432
WIRE 928 432 928 400
WIRE 928 432 864 432
WIRE 1136 464 1104 464
WIRE 672 496 672 432
WIRE 864 496 864 432
WIRE 992 496 992 400
WIRE 1056 496 992 496
WIRE 1104 528 1104 512
WIRE 1136 528 1136 464
WIRE 1136 528 1104 528
WIRE 704 544 672 544
WIRE 912 544 864 544
WIRE 928 560 928 432
WIRE 1248 560 928 560
WIRE 592 576 592 304
WIRE 624 576 592 576
WIRE 768 576 768 160
WIRE 816 576 768 576
WIRE 672 608 672 592
WIRE 704 608 704 544
WIRE 704 608 672 608
WIRE 864 608 864 592
WIRE 912 608 912 544
WIRE 912 608 864 608
WIRE 672 624 672 608
WIRE 672 624 560 624
WIRE 864 624 864 608
WIRE 864 624 672 624
WIRE 1104 624 1104 528
WIRE 1104 624 864 624
FLAG 128 48 VDD
IOPIN 128 48 In
FLAG 128 288 0
FLAG 240 176 VOUT
IOPIN 240 176 Out
FLAG 368 144 VDD
IOPIN 368 144 Out
FLAG 368 288 0
FLAG -192 288 0
FLAG -96 352 0
FLAG 1248 400 Q
IOPIN 1248 400 Out
FLAG 560 112 VDD
IOPIN 560 112 In
FLAG 560 160 A
IOPIN 560 160 In
FLAG 560 304 B
IOPIN 560 304 In
FLAG 560 624 VSS
IOPIN 560 624 In
FLAG 80 144 A
IOPIN 80 144 Out
FLAG 80 208 B
IOPIN 80 208 Out
FLAG 128 240 VSS
IOPIN 128 240 Out
FLAG 1248 560 Q_BAR
IOPIN 1248 560 Out
SYMBOL voltage 368 160 R0
WINDOW 123 0 0 Left 0
WINDOW 39 0 0 Left 0
SYMATTR InstName V1
SYMATTR Value 1.8
SYMBOL voltage -192 160 R0
SYMATTR InstName V2
SYMATTR Value PULSE(0 1.8 1n 60p 60p 5n 10n)
SYMBOL voltage -96 224 R0
WINDOW 123 0 0 Left 0
WINDOW 39 0 0 Left 0
SYMATTR InstName V3
SYMATTR Value PULSE(0 1.8 10n 60p 60p 5n 10n)
SYMBOL nmos4 624 496 R0
SYMATTR InstName M1
SYMATTR Value2 l=0.18u w=1.8u m=1
SYMBOL nmos4 816 496 R0
SYMATTR InstName M2
SYMATTR Value2 l=0.18u w=1.8u m=1
SYMBOL pmos4 816 384 M180
SYMATTR InstName M3
SYMATTR Value2 l=0.18u w=1.8u m=1
SYMBOL pmos4 816 240 M180
SYMATTR InstName M4
SYMATTR Value2 l=0.18u w=1.8u m=1
SYMBOL nmos4 1056 416 R0
SYMATTR InstName M5
SYMATTR Value2 l=0.18u w=1.8u m=1
SYMBOL pmos4 1056 368 M180
SYMATTR InstName M6
SYMATTR Value2 l=0.18u w=1.8u m=1
TEXT -224 376 Left 2 !.tran 40n
