
.SUBCKT my_comparator CLK VDD VINN VINP VSS VOUTN VOUTP 

M2 N047 N054 N057 N052 CMOSN l=0.18u w=1.8u m=1 
M3 N061 N072 N077 N066 CMOSN l=0.18u w=1.8u m=1 
M4 N023 N013 N007 N015 CMOSP l=0.18u w=1.8u m=1 
M5 N024 N014 N008 N016 CMOSP l=0.18u w=1.8u m=1 
M1 N046 N053 N055 N050 CMOSN l=0.18u w=1.8u m=1 
M6 N062 N073 N078 N068 CMOSN l=0.18u w=1.8u m=1 
M7 N063 N074 N079 N069 CMOSN l=0.18u w=1.8u m=1 
M8 N019 N034 N038 N027 CMOSN l=0.18u w=1.8u m=1 
M9 N040 N031 N028 N025 CMOSP l=0.18u w=1.8u m=1 
M10 N017 N004 N001 N009 CMOSP l=0.18u w=1.8u m=1 
M11 N065 N076 N081 N071 CMOSN l=0.18u w=1.8u m=1 
M12 N064 N075 N080 N070 CMOSN l=0.18u w=1.8u m=1 
M13 N022 N035 N039 N030 CMOSN l=0.18u w=1.8u m=1 
M14 N041 N033 N029 N026 CMOSP l=0.18u w=1.8u m=1 
M15 N018 N005 N002 N012 CMOSP l=0.18u w=1.8u m=1 
R001_s_comp n002_s N007 0.01 
R_n001_1_comp n001_1_comp n002_s 0.7625 
R_n001_2_comp n001_2_comp n001_1_comp 0.7625 
R001_g_comp VDD n001_2_comp 0.01 
R002_s_comp n003_s N015 0.01 
R_n002_1_comp n002_1_comp n003_s 0.7625 
R_n002_2_comp n002_2_comp n002_1_comp 0.7625 
R_n002_3_comp n002_3_comp n002_2_comp 0.7625 
R_n002_4_comp n002_4_comp n002_3_comp 0.7625 
R_n002_5_comp n002_5_comp n002_4_comp 0.7625 
R_n002_6_comp n002_6_comp n002_5_comp 0.7625 
R_n002_7_comp n002_7_comp n002_6_comp 0.7625 
R_n002_8_comp n002_8_comp n002_7_comp 0.7625 
R_n002_9_comp n002_9_comp n002_8_comp 0.7625 
R_n002_10_comp n002_10_comp n002_9_comp 0.7625 
R002_g_comp VDD n002_10_comp 0.01 
R003_s_comp n004_s N016 0.01 
R_n003_1_comp n003_1_comp n004_s 0.7625 
R_n003_2_comp n003_2_comp n003_1_comp 0.7625 
R_n003_3_comp n003_3_comp n003_2_comp 0.7625 
R_n003_4_comp n003_4_comp n003_3_comp 0.7625 
R_n003_5_comp n003_5_comp n003_4_comp 0.7625 
R_n003_6_comp n003_6_comp n003_5_comp 0.7625 
R_n003_7_comp n003_7_comp n003_6_comp 0.7625 
R_n003_8_comp n003_8_comp n003_7_comp 0.7625 
R_n003_9_comp n003_9_comp n003_8_comp 0.7625 
R_n003_10_comp n003_10_comp n003_9_comp 0.7625 
R003_g_comp VDD n003_10_comp 0.01 
R004_s_comp n005_s N008 0.01 
R_n004_1_comp n004_1_comp n005_s 0.7625 
R_n004_2_comp n004_2_comp n004_1_comp 0.7625 
R004_g_comp VDD n004_2_comp 0.01 
R005_s_comp n006_s CLK 0.01 
R_n005_1_comp n005_1_comp n006_s 0.7625 
R_n005_2_comp n005_2_comp n005_1_comp 0.7625 
R005_g_comp N013 n005_2_comp 0.01 
R006_s_comp n007_s N014 0.01 
R_n006_1_comp n006_1_comp n007_s 0.7625 
R_n006_2_comp n006_2_comp n006_1_comp 0.442062 
R_n006_3_comp n006_3_comp n006_2_comp 0.38462766666666665 
R_n006_4_comp n006_4_comp n006_3_comp 0.28402777777777777 
R_n006_5_comp n006_5_comp n006_4_comp 0.28402777777777777 
R_n006_6_comp n006_6_comp n006_5_comp 0.28402777777777777 
R_n006_7_comp n006_7_comp n006_6_comp 0.28402777777777777 
R_n006_8_comp n006_8_comp n006_7_comp 0.20059988888888888 
R_n006_9_comp n006_9_comp n006_8_comp 0.38939766666666664 
R_n006_10_comp n006_10_comp n006_9_comp 0.28402777777777777 
R_n006_11_comp n006_11_comp n006_10_comp 0.38939766666666664 
R_n006_12_comp n006_12_comp n006_11_comp 0.30119977777777773 
R_n006_13_comp n006_13_comp n006_12_comp 0.442062 
R_n006_14_comp n006_14_comp n006_13_comp 0.7625 
R_n006_15_comp n006_15_comp n006_14_comp 0.7625 
R_n006_16_comp n006_16_comp n006_15_comp 0.7625 
R006_g_comp CLK n006_16_comp 0.01 
R007_s_comp n008_s N023 0.01 
R_n007_1_comp n007_1_comp n008_s 0.7625 
R_n007_2_comp n007_2_comp n007_1_comp 0.7625 
R_n007_3_comp n007_3_comp n007_2_comp 0.7625 
R_n007_4_comp n007_4_comp n007_3_comp 0.7625 
R007_g_comp N036 n007_4_comp 0.01 
R008_s_comp n009_s N024 0.01 
R_n008_1_comp n008_1_comp n009_s 0.38462766666666665 
R_n008_2_comp n008_2_comp n008_1_comp 0.28402777777777777 
R_n008_3_comp n008_3_comp n008_2_comp 0.38462766666666665 
R_n008_4_comp n008_4_comp n008_3_comp 0.442062 
R008_g_comp N042 n008_4_comp 0.01 
R009_s_comp n010_s N036 0.01 
R009_g_comp N046 n010_s 0.01 
R010_s_comp n011_s N042 0.01 
R010_g_comp N047 n011_s 0.01 
R011_s_comp n012_s N053 0.01 
R_n011_1_comp n011_1_comp n012_s 0.7625 
R_n011_2_comp n011_2_comp n011_1_comp 0.7625 
R_n011_3_comp n011_3_comp n011_2_comp 0.7625 
R_n011_4_comp n011_4_comp n011_3_comp 0.7625 
R_n011_5_comp n011_5_comp n011_4_comp 0.7625 
R_n011_6_comp n011_6_comp n011_5_comp 0.7625 
R_n011_7_comp n011_7_comp n011_6_comp 0.7625 
R_n011_8_comp n011_8_comp n011_7_comp 0.7625 
R_n011_9_comp n011_9_comp n011_8_comp 0.442062 
R_n011_10_comp n011_10_comp n011_9_comp 0.30119977777777773 
R_n011_11_comp n011_11_comp n011_10_comp 0.38939766666666664 
R_n011_12_comp n011_12_comp n011_11_comp 0.28402777777777777 
R_n011_13_comp n011_13_comp n011_12_comp 0.38939766666666664 
R_n011_14_comp n011_14_comp n011_13_comp 0.30119977777777773 
R_n011_15_comp n011_15_comp n011_14_comp 0.442062 
R_n011_16_comp n011_16_comp n011_15_comp 0.7625 
R_n011_17_comp n011_17_comp n011_16_comp 0.7625 
R_n011_18_comp n011_18_comp n011_17_comp 0.7625 
R_n011_19_comp n011_19_comp n011_18_comp 0.7625 
R_n011_20_comp n011_20_comp n011_19_comp 0.7625 
R_n011_21_comp n011_21_comp n011_20_comp 0.7625 
R_n011_22_comp n011_22_comp n011_21_comp 0.7625 
R_n011_23_comp n011_23_comp n011_22_comp 0.7625 
R_n011_24_comp n011_24_comp n011_23_comp 0.7625 
R_n011_25_comp n011_25_comp n011_24_comp 0.7625 
R_n011_26_comp n011_26_comp n011_25_comp 0.7625 
R011_g_comp VINP n011_26_comp 0.01 
R012_s_comp n013_s N051 0.01 
R012_g_comp N050 n013_s 0.01 
R013_s_comp n014_s N052 0.01 
R_n013_1_comp n013_1_comp n014_s 0.7625 
R_n013_2_comp n013_2_comp n013_1_comp 0.7625 
R013_g_comp N051 n013_2_comp 0.01 
R014_s_comp n015_s VINN 0.01 
R_n014_1_comp n014_1_comp n015_s 0.7625 
R_n014_2_comp n014_2_comp n014_1_comp 0.7625 
R_n014_3_comp n014_3_comp n014_2_comp 0.7625 
R_n014_4_comp n014_4_comp n014_3_comp 0.7625 
R_n014_5_comp n014_5_comp n014_4_comp 0.7625 
R_n014_6_comp n014_6_comp n014_5_comp 0.7625 
R_n014_7_comp n014_7_comp n014_6_comp 0.7625 
R_n014_8_comp n014_8_comp n014_7_comp 0.7625 
R_n014_9_comp n014_9_comp n014_8_comp 0.7625 
R_n014_10_comp n014_10_comp n014_9_comp 0.7625 
R_n014_11_comp n014_11_comp n014_10_comp 0.7625 
R_n014_12_comp n014_12_comp n014_11_comp 0.7625 
R_n014_13_comp n014_13_comp n014_12_comp 0.7625 
R_n014_14_comp n014_14_comp n014_13_comp 0.7625 
R_n014_15_comp n014_15_comp n014_14_comp 0.7625 
R_n014_16_comp n014_16_comp n014_15_comp 0.7625 
R_n014_17_comp n014_17_comp n014_16_comp 0.7625 
R_n014_18_comp n014_18_comp n014_17_comp 0.7625 
R_n014_19_comp n014_19_comp n014_18_comp 0.7625 
R_n014_20_comp n014_20_comp n014_19_comp 0.7625 
R_n014_21_comp n014_21_comp n014_20_comp 0.7625 
R_n014_22_comp n014_22_comp n014_21_comp 0.7625 
R014_g_comp N054 n014_22_comp 0.01 
R015_s_comp n016_s N056 0.01 
R_n015_1_comp n015_1_comp n016_s 0.7625 
R_n015_2_comp n015_2_comp n015_1_comp 0.7625 
R_n015_3_comp n015_3_comp n015_2_comp 0.7625 
R_n015_4_comp n015_4_comp n015_3_comp 0.7625 
R_n015_5_comp n015_5_comp n015_4_comp 0.7625 
R015_g_comp N055 n015_5_comp 0.01 
R016_s_comp n017_s N057 0.01 
R_n016_1_comp n016_1_comp n017_s 0.7625 
R_n016_2_comp n016_2_comp n016_1_comp 0.7625 
R016_g_comp N056 n016_2_comp 0.01 
R017_s_comp n018_s N061 0.01 
R_n017_1_comp n017_1_comp n018_s 0.7625 
R_n017_2_comp n017_2_comp n017_1_comp 0.7625 
R_n017_3_comp n017_3_comp n017_2_comp 0.7625 
R_n017_4_comp n017_4_comp n017_3_comp 0.7625 
R_n017_5_comp n017_5_comp n017_4_comp 0.7625 
R_n017_6_comp n017_6_comp n017_5_comp 0.7625 
R_n017_7_comp n017_7_comp n017_6_comp 0.7625 
R_n017_8_comp n017_8_comp n017_7_comp 0.7625 
R_n017_9_comp n017_9_comp n017_8_comp 0.7625 
R_n017_10_comp n017_10_comp n017_9_comp 0.7625 
R_n017_11_comp n017_11_comp n017_10_comp 0.7625 
R017_g_comp N056 n017_11_comp 0.01 
R018_s_comp n019_s N067 0.01 
R_n018_1_comp n018_1_comp n019_s 0.7625 
R_n018_2_comp n018_2_comp n018_1_comp 0.7625 
R_n018_3_comp n018_3_comp n018_2_comp 0.7625 
R_n018_4_comp n018_4_comp n018_3_comp 0.7625 
R_n018_5_comp n018_5_comp n018_4_comp 0.7625 
R_n018_6_comp n018_6_comp n018_5_comp 0.7625 
R_n018_7_comp n018_7_comp n018_6_comp 0.7625 
R_n018_8_comp n018_8_comp n018_7_comp 0.7625 
R_n018_9_comp n018_9_comp n018_8_comp 0.7625 
R_n018_10_comp n018_10_comp n018_9_comp 0.7625 
R_n018_11_comp n018_11_comp n018_10_comp 0.7625 
R_n018_12_comp n018_12_comp n018_11_comp 0.7625 
R_n018_13_comp n018_13_comp n018_12_comp 0.7625 
R_n018_14_comp n018_14_comp n018_13_comp 0.7625 
R018_g_comp N051 n018_14_comp 0.01 
R019_s_comp n020_s CLK 0.01 
R019_g_comp N072 n020_s 0.01 
R020_s_comp n021_s N066 0.01 
R_n020_1_comp n020_1_comp n021_s 0.7625 
R_n020_2_comp n020_2_comp n020_1_comp 0.7625 
R_n020_3_comp n020_3_comp n020_2_comp 0.7625 
R020_g_comp N067 n020_3_comp 0.01 
R021_s_comp n022_s VSS 0.01 
R_n021_1_comp n021_1_comp n022_s 0.7625 
R_n021_2_comp n021_2_comp n021_1_comp 0.7625 
R_n021_3_comp n021_3_comp n021_2_comp 0.7625 
R_n021_4_comp n021_4_comp n021_3_comp 0.7625 
R_n021_5_comp n021_5_comp n021_4_comp 0.7625 
R_n021_6_comp n021_6_comp n021_5_comp 0.7625 
R_n021_7_comp n021_7_comp n021_6_comp 0.7625 
R_n021_8_comp n021_8_comp n021_7_comp 0.7625 
R_n021_9_comp n021_9_comp n021_8_comp 0.7625 
R_n021_10_comp n021_10_comp n021_9_comp 0.7625 
R_n021_11_comp n021_11_comp n021_10_comp 0.7625 
R_n021_12_comp n021_12_comp n021_11_comp 0.7625 
R_n021_13_comp n021_13_comp n021_12_comp 0.7625 
R_n021_14_comp n021_14_comp n021_13_comp 0.7625 
R_n021_15_comp n021_15_comp n021_14_comp 0.7625 
R_n021_16_comp n021_16_comp n021_15_comp 0.7625 
R_n021_17_comp n021_17_comp n021_16_comp 0.7625 
R_n021_18_comp n021_18_comp n021_17_comp 0.7625 
R_n021_19_comp n021_19_comp n021_18_comp 0.7625 
R_n021_20_comp n021_20_comp n021_19_comp 0.7625 
R_n021_21_comp n021_21_comp n021_20_comp 0.7625 
R021_g_comp N077 n021_21_comp 0.01 
R022_s_comp n023_s VSS 0.01 
R_n022_1_comp n022_1_comp n023_s 0.7625 
R_n022_2_comp n022_2_comp n022_1_comp 0.7625 
R_n022_3_comp n022_3_comp n022_2_comp 0.7625 
R_n022_4_comp n022_4_comp n022_3_comp 0.7625 
R_n022_5_comp n022_5_comp n022_4_comp 0.7625 
R_n022_6_comp n022_6_comp n022_5_comp 0.7625 
R_n022_7_comp n022_7_comp n022_6_comp 0.442062 
R_n022_8_comp n022_8_comp n022_7_comp 0.30119977777777773 
R_n022_9_comp n022_9_comp n022_8_comp 0.38939766666666664 
R_n022_10_comp n022_10_comp n022_9_comp 0.28402777777777777 
R_n022_11_comp n022_11_comp n022_10_comp 0.28402777777777777 
R_n022_12_comp n022_12_comp n022_11_comp 0.28402777777777777 
R_n022_13_comp n022_13_comp n022_12_comp 0.28402777777777777 
R_n022_14_comp n022_14_comp n022_13_comp 0.28402777777777777 
R_n022_15_comp n022_15_comp n022_14_comp 0.28402777777777777 
R_n022_16_comp n022_16_comp n022_15_comp 0.28402777777777777 
R_n022_17_comp n022_17_comp n022_16_comp 0.28402777777777777 
R_n022_18_comp n022_18_comp n022_17_comp 0.28402777777777777 
R_n022_19_comp n022_19_comp n022_18_comp 0.28402777777777777 
R_n022_20_comp n022_20_comp n022_19_comp 0.28402777777777777 
R_n022_21_comp n022_21_comp n022_20_comp 0.28402777777777777 
R_n022_22_comp n022_22_comp n022_21_comp 0.28402777777777777 
R_n022_23_comp n022_23_comp n022_22_comp 0.28402777777777777 
R_n022_24_comp n022_24_comp n022_23_comp 0.28402777777777777 
R_n022_25_comp n022_25_comp n022_24_comp 0.28402777777777777 
R_n022_26_comp n022_26_comp n022_25_comp 0.28402777777777777 
R_n022_27_comp n022_27_comp n022_26_comp 0.28402777777777777 
R_n022_28_comp n022_28_comp n022_27_comp 0.28402777777777777 
R_n022_29_comp n022_29_comp n022_28_comp 0.38939766666666664 
R_n022_30_comp n022_30_comp n022_29_comp 0.30119977777777773 
R_n022_31_comp n022_31_comp n022_30_comp 0.442062 
R_n022_32_comp n022_32_comp n022_31_comp 0.7625 
R_n022_33_comp n022_33_comp n022_32_comp 0.7625 
R_n022_34_comp n022_34_comp n022_33_comp 0.7625 
R_n022_35_comp n022_35_comp n022_34_comp 0.7625 
R022_g_comp N067 n022_35_comp 0.01 
R023_s_comp n024_s N037 0.01 
R_n023_1_comp n023_1_comp n024_s 0.7625 
R_n023_2_comp n023_2_comp n023_1_comp 0.7625 
R023_g_comp N036 n023_2_comp 0.01 
R024_s_comp n025_s N043 0.01 
R_n024_1_comp n024_1_comp n025_s 0.7625 
R_n024_2_comp n024_2_comp n024_1_comp 0.7625 
R_n024_3_comp n024_3_comp n024_2_comp 0.7625 
R_n024_4_comp n024_4_comp n024_3_comp 0.7625 
R_n024_5_comp n024_5_comp n024_4_comp 0.7625 
R_n024_6_comp n024_6_comp n024_5_comp 0.7625 
R_n024_7_comp n024_7_comp n024_6_comp 0.7625 
R_n024_8_comp n024_8_comp n024_7_comp 0.7625 
R_n024_9_comp n024_9_comp n024_8_comp 0.7625 
R024_g_comp N042 n024_9_comp 0.01 
R025_s_comp n026_s N001 0.01 
R_n025_1_comp n025_1_comp n026_s 0.7625 
R_n025_2_comp n025_2_comp n025_1_comp 0.7625 
R_n025_3_comp n025_3_comp n025_2_comp 0.7625 
R_n025_4_comp n025_4_comp n025_3_comp 0.7625 
R_n025_5_comp n025_5_comp n025_4_comp 0.7625 
R_n025_6_comp n025_6_comp n025_5_comp 0.7625 
R_n025_7_comp n025_7_comp n025_6_comp 0.7625 
R_n025_8_comp n025_8_comp n025_7_comp 0.7625 
R_n025_9_comp n025_9_comp n025_8_comp 0.7625 
R025_g_comp VDD n025_9_comp 0.01 
R026_s_comp n027_s N010 0.01 
R_n026_1_comp n026_1_comp n027_s 0.7625 
R_n026_2_comp n026_2_comp n026_1_comp 0.7625 
R026_g_comp VDD n026_2_comp 0.01 
R027_s_comp n028_s N011 0.01 
R_n027_1_comp n027_1_comp n028_s 0.7625 
R_n027_2_comp n027_2_comp n027_1_comp 0.7625 
R_n027_3_comp n027_3_comp n027_2_comp 0.7625 
R_n027_4_comp n027_4_comp n027_3_comp 0.7625 
R_n027_5_comp n027_5_comp n027_4_comp 0.7625 
R_n027_6_comp n027_6_comp n027_5_comp 0.7625 
R_n027_7_comp n027_7_comp n027_6_comp 0.7625 
R_n027_8_comp n027_8_comp n027_7_comp 0.7625 
R_n027_9_comp n027_9_comp n027_8_comp 0.7625 
R_n027_10_comp n027_10_comp n027_9_comp 0.7625 
R_n027_11_comp n027_11_comp n027_10_comp 0.7625 
R_n027_12_comp n027_12_comp n027_11_comp 0.7625 
R_n027_13_comp n027_13_comp n027_12_comp 0.7625 
R_n027_14_comp n027_14_comp n027_13_comp 0.7625 
R027_g_comp VDD n027_14_comp 0.01 
R028_s_comp n029_s N002 0.01 
R028_g_comp VDD n029_s 0.01 
R029_s_comp n030_s N004 0.01 
R029_g_comp N003 n030_s 0.01 
R030_s_comp n031_s N010 0.01 
R_n030_1_comp n030_1_comp n031_s 0.7625 
R_n030_2_comp n030_2_comp n030_1_comp 0.7625 
R_n030_3_comp n030_3_comp n030_2_comp 0.7625 
R_n030_4_comp n030_4_comp n030_3_comp 0.7625 
R_n030_5_comp n030_5_comp n030_4_comp 0.7625 
R_n030_6_comp n030_6_comp n030_5_comp 0.7625 
R_n030_7_comp n030_7_comp n030_6_comp 0.7625 
R_n030_8_comp n030_8_comp n030_7_comp 0.7625 
R_n030_9_comp n030_9_comp n030_8_comp 0.7625 
R_n030_10_comp n030_10_comp n030_9_comp 0.7625 
R_n030_11_comp n030_11_comp n030_10_comp 0.7625 
R_n030_12_comp n030_12_comp n030_11_comp 0.7625 
R_n030_13_comp n030_13_comp n030_12_comp 0.7625 
R_n030_14_comp n030_14_comp n030_13_comp 0.7625 
R030_g_comp N009 n030_14_comp 0.01 
R031_s_comp n032_s N020 0.01 
R031_g_comp N017 n032_s 0.01 
R032_s_comp n033_s N025 0.01 
R_n032_1_comp n032_1_comp n033_s 0.7625 
R_n032_2_comp n032_2_comp n032_1_comp 0.442062 
R_n032_3_comp n032_3_comp n032_2_comp 0.38462766666666665 
R_n032_4_comp n032_4_comp n032_3_comp 0.28402777777777777 
R_n032_5_comp n032_5_comp n032_4_comp 0.28402777777777777 
R_n032_6_comp n032_6_comp n032_5_comp 0.28402777777777777 
R_n032_7_comp n032_7_comp n032_6_comp 0.28402777777777777 
R_n032_8_comp n032_8_comp n032_7_comp 0.28402777777777777 
R_n032_9_comp n032_9_comp n032_8_comp 0.38462766666666665 
R_n032_10_comp n032_10_comp n032_9_comp 0.442062 
R032_g_comp N010 n032_10_comp 0.01 
R033_s_comp n034_s N019 0.01 
R_n033_1_comp n033_1_comp n034_s 0.7625 
R_n033_2_comp n033_2_comp n033_1_comp 0.7625 
R033_g_comp N020 n033_2_comp 0.01 
R034_s_comp n035_s N028 0.01 
R_n034_1_comp n034_1_comp n035_s 0.7625 
R034_g_comp N020 n034_1_comp 0.01 
R035_s_comp n036_s N034 0.01 
R_n035_1_comp n035_1_comp n036_s 0.7625 
R_n035_2_comp n035_2_comp n035_1_comp 0.7625 
R_n035_3_comp n035_3_comp n035_2_comp 0.7625 
R_n035_4_comp n035_4_comp n035_3_comp 0.7625 
R_n035_5_comp n035_5_comp n035_4_comp 0.7625 
R_n035_6_comp n035_6_comp n035_5_comp 0.7625 
R_n035_7_comp n035_7_comp n035_6_comp 0.7625 
R_n035_8_comp n035_8_comp n035_7_comp 0.7625 
R_n035_9_comp n035_9_comp n035_8_comp 0.7625 
R_n035_10_comp n035_10_comp n035_9_comp 0.7625 
R_n035_11_comp n035_11_comp n035_10_comp 0.7625 
R_n035_12_comp n035_12_comp n035_11_comp 0.7625 
R035_g_comp N003 n035_12_comp 0.01 
R036_s_comp n037_s VSS 0.01 
R_n036_1_comp n036_1_comp n037_s 0.7625 
R_n036_2_comp n036_2_comp n036_1_comp 0.7625 
R_n036_3_comp n036_3_comp n036_2_comp 0.7625 
R_n036_4_comp n036_4_comp n036_3_comp 0.7625 
R_n036_5_comp n036_5_comp n036_4_comp 0.7625 
R_n036_6_comp n036_6_comp n036_5_comp 0.7625 
R_n036_7_comp n036_7_comp n036_6_comp 0.7625 
R_n036_8_comp n036_8_comp n036_7_comp 0.7625 
R_n036_9_comp n036_9_comp n036_8_comp 0.7625 
R_n036_10_comp n036_10_comp n036_9_comp 0.7625 
R_n036_11_comp n036_11_comp n036_10_comp 0.7625 
R_n036_12_comp n036_12_comp n036_11_comp 0.7625 
R036_g_comp N027 n036_12_comp 0.01 
R037_s_comp n038_s VSS 0.01 
R_n037_1_comp n037_1_comp n038_s 0.7625 
R_n037_2_comp n037_2_comp n037_1_comp 0.7625 
R037_g_comp N038 n037_2_comp 0.01 
R038_s_comp n039_s N032 0.01 
R_n038_1_comp n038_1_comp n039_s 0.7625 
R038_g_comp N031 n038_1_comp 0.01 
R039_s_comp n040_s N037 0.01 
R_n039_1_comp n039_1_comp n040_s 0.7625 
R_n039_2_comp n039_2_comp n039_1_comp 0.7625 
R_n039_3_comp n039_3_comp n039_2_comp 0.7625 
R_n039_4_comp n039_4_comp n039_3_comp 0.442062 
R_n039_5_comp n039_5_comp n039_4_comp 0.38462766666666665 
R_n039_6_comp n039_6_comp n039_5_comp 0.28402777777777777 
R_n039_7_comp n039_7_comp n039_6_comp 0.28402777777777777 
R_n039_8_comp n039_8_comp n039_7_comp 0.28402777777777777 
R_n039_9_comp n039_9_comp n039_8_comp 0.28402777777777777 
R_n039_10_comp n039_10_comp n039_9_comp 0.28402777777777777 
R_n039_11_comp n039_11_comp n039_10_comp 0.28402777777777777 
R_n039_12_comp n039_12_comp n039_11_comp 0.38462766666666665 
R039_g_comp N073 n039_12_comp 0.01 
R040_s_comp n041_s N040 0.01 
R040_g_comp N044 n041_s 0.01 
R041_s_comp n042_s N044 0.01 
R_n041_1_comp n041_1_comp n042_s 0.7625 
R_n041_2_comp n041_2_comp n041_1_comp 0.7625 
R_n041_3_comp n041_3_comp n041_2_comp 0.7625 
R_n041_4_comp n041_4_comp n041_3_comp 0.7625 
R_n041_5_comp n041_5_comp n041_4_comp 0.7625 
R_n041_6_comp n041_6_comp n041_5_comp 0.7625 
R_n041_7_comp n041_7_comp n041_6_comp 0.7625 
R_n041_8_comp n041_8_comp n041_7_comp 0.7625 
R_n041_9_comp n041_9_comp n041_8_comp 0.7625 
R_n041_10_comp n041_10_comp n041_9_comp 0.7625 
R_n041_11_comp n041_11_comp n041_10_comp 0.7625 
R_n041_12_comp n041_12_comp n041_11_comp 0.7625 
R_n041_13_comp n041_13_comp n041_12_comp 0.7625 
R_n041_14_comp n041_14_comp n041_13_comp 0.7625 
R_n041_15_comp n041_15_comp n041_14_comp 0.7625 
R_n041_16_comp n041_16_comp n041_15_comp 0.7625 
R_n041_17_comp n041_17_comp n041_16_comp 0.7625 
R_n041_18_comp n041_18_comp n041_17_comp 0.7625 
R041_g_comp N048 n041_18_comp 0.01 
R042_s_comp n043_s N048 0.01 
R_n042_1_comp n042_1_comp n043_s 0.7625 
R_n042_2_comp n042_2_comp n042_1_comp 0.7625 
R_n042_3_comp n042_3_comp n042_2_comp 0.7625 
R_n042_4_comp n042_4_comp n042_3_comp 0.7625 
R_n042_5_comp n042_5_comp n042_4_comp 0.7625 
R_n042_6_comp n042_6_comp n042_5_comp 0.7625 
R_n042_7_comp n042_7_comp n042_6_comp 0.7625 
R_n042_8_comp n042_8_comp n042_7_comp 0.7625 
R_n042_9_comp n042_9_comp n042_8_comp 0.7625 
R_n042_10_comp n042_10_comp n042_9_comp 0.7625 
R_n042_11_comp n042_11_comp n042_10_comp 0.7625 
R_n042_12_comp n042_12_comp n042_11_comp 0.442062 
R_n042_13_comp n042_13_comp n042_12_comp 0.38462766666666665 
R_n042_14_comp n042_14_comp n042_13_comp 0.28402777777777777 
R_n042_15_comp n042_15_comp n042_14_comp 0.38462766666666665 
R_n042_16_comp n042_16_comp n042_15_comp 0.442062 
R_n042_17_comp n042_17_comp n042_16_comp 0.7625 
R_n042_18_comp n042_18_comp n042_17_comp 0.7625 
R_n042_19_comp n042_19_comp n042_18_comp 0.7625 
R_n042_20_comp n042_20_comp n042_19_comp 0.7625 
R042_g_comp N059 n042_20_comp 0.01 
R043_s_comp n044_s N059 0.01 
R_n043_1_comp n043_1_comp n044_s 0.7625 
R_n043_2_comp n043_2_comp n043_1_comp 0.7625 
R_n043_3_comp n043_3_comp n043_2_comp 0.7625 
R_n043_4_comp n043_4_comp n043_3_comp 0.7625 
R_n043_5_comp n043_5_comp n043_4_comp 0.7625 
R_n043_6_comp n043_6_comp n043_5_comp 0.7625 
R_n043_7_comp n043_7_comp n043_6_comp 0.7625 
R_n043_8_comp n043_8_comp n043_7_comp 0.7625 
R_n043_9_comp n043_9_comp n043_8_comp 0.7625 
R_n043_10_comp n043_10_comp n043_9_comp 0.7625 
R_n043_11_comp n043_11_comp n043_10_comp 0.7625 
R_n043_12_comp n043_12_comp n043_11_comp 0.7625 
R_n043_13_comp n043_13_comp n043_12_comp 0.7625 
R_n043_14_comp n043_14_comp n043_13_comp 0.7625 
R_n043_15_comp n043_15_comp n043_14_comp 0.7625 
R_n043_16_comp n043_16_comp n043_15_comp 0.7625 
R_n043_17_comp n043_17_comp n043_16_comp 0.7625 
R_n043_18_comp n043_18_comp n043_17_comp 0.7625 
R043_g_comp N062 n043_18_comp 0.01 
R044_s_comp n045_s N059 0.01 
R_n044_1_comp n044_1_comp n045_s 0.7625 
R_n044_2_comp n044_2_comp n044_1_comp 0.7625 
R_n044_3_comp n044_3_comp n044_2_comp 0.7625 
R_n044_4_comp n044_4_comp n044_3_comp 0.7625 
R_n044_5_comp n044_5_comp n044_4_comp 0.7625 
R_n044_6_comp n044_6_comp n044_5_comp 0.7625 
R_n044_7_comp n044_7_comp n044_6_comp 0.7625 
R_n044_8_comp n044_8_comp n044_7_comp 0.7625 
R_n044_9_comp n044_9_comp n044_8_comp 0.7625 
R_n044_10_comp n044_10_comp n044_9_comp 0.7625 
R_n044_11_comp n044_11_comp n044_10_comp 0.7625 
R_n044_12_comp n044_12_comp n044_11_comp 0.7625 
R_n044_13_comp n044_13_comp n044_12_comp 0.7625 
R_n044_14_comp n044_14_comp n044_13_comp 0.7625 
R_n044_15_comp n044_15_comp n044_14_comp 0.7625 
R_n044_16_comp n044_16_comp n044_15_comp 0.7625 
R_n044_17_comp n044_17_comp n044_16_comp 0.7625 
R_n044_18_comp n044_18_comp n044_17_comp 0.7625 
R044_g_comp N063 n044_18_comp 0.01 
R045_s_comp n046_s N078 0.01 
R_n045_1_comp n045_1_comp n046_s 0.38462766666666665 
R_n045_2_comp n045_2_comp n045_1_comp 0.28402777777777777 
R_n045_3_comp n045_3_comp n045_2_comp 0.28402777777777777 
R_n045_4_comp n045_4_comp n045_3_comp 0.28402777777777777 
R_n045_5_comp n045_5_comp n045_4_comp 0.28402777777777777 
R_n045_6_comp n045_6_comp n045_5_comp 0.28402777777777777 
R_n045_7_comp n045_7_comp n045_6_comp 0.28402777777777777 
R_n045_8_comp n045_8_comp n045_7_comp 0.28402777777777777 
R_n045_9_comp n045_9_comp n045_8_comp 0.28402777777777777 
R_n045_10_comp n045_10_comp n045_9_comp 0.28402777777777777 
R_n045_11_comp n045_11_comp n045_10_comp 0.28402777777777777 
R_n045_12_comp n045_12_comp n045_11_comp 0.38462766666666665 
R_n045_13_comp n045_13_comp n045_12_comp 0.442062 
R_n045_14_comp n045_14_comp n045_13_comp 0.7625 
R_n045_15_comp n045_15_comp n045_14_comp 0.7625 
R_n045_16_comp n045_16_comp n045_15_comp 0.7625 
R_n045_17_comp n045_17_comp n045_16_comp 0.7625 
R_n045_18_comp n045_18_comp n045_17_comp 0.7625 
R_n045_19_comp n045_19_comp n045_18_comp 0.7625 
R_n045_20_comp n045_20_comp n045_19_comp 0.7625 
R_n045_21_comp n045_21_comp n045_20_comp 0.7625 
R_n045_22_comp n045_22_comp n045_21_comp 0.7625 
R045_g_comp VSS n045_22_comp 0.01 
R046_s_comp n047_s N068 0.01 
R_n046_1_comp n046_1_comp n047_s 0.7625 
R_n046_2_comp n046_2_comp n046_1_comp 0.7625 
R_n046_3_comp n046_3_comp n046_2_comp 0.7625 
R_n046_4_comp n046_4_comp n046_3_comp 0.7625 
R_n046_5_comp n046_5_comp n046_4_comp 0.7625 
R_n046_6_comp n046_6_comp n046_5_comp 0.7625 
R_n046_7_comp n046_7_comp n046_6_comp 0.7625 
R_n046_8_comp n046_8_comp n046_7_comp 0.7625 
R_n046_9_comp n046_9_comp n046_8_comp 0.7625 
R_n046_10_comp n046_10_comp n046_9_comp 0.7625 
R_n046_11_comp n046_11_comp n046_10_comp 0.7625 
R_n046_12_comp n046_12_comp n046_11_comp 0.7625 
R_n046_13_comp n046_13_comp n046_12_comp 0.7625 
R_n046_14_comp n046_14_comp n046_13_comp 0.7625 
R_n046_15_comp n046_15_comp n046_14_comp 0.7625 
R_n046_16_comp n046_16_comp n046_15_comp 0.7625 
R046_g_comp VSS n046_16_comp 0.01 
R047_s_comp n048_s N069 0.01 
R_n047_1_comp n047_1_comp n048_s 0.7625 
R_n047_2_comp n047_2_comp n047_1_comp 0.7625 
R_n047_3_comp n047_3_comp n047_2_comp 0.7625 
R_n047_4_comp n047_4_comp n047_3_comp 0.442062 
R_n047_5_comp n047_5_comp n047_4_comp 0.38462766666666665 
R_n047_6_comp n047_6_comp n047_5_comp 0.28402777777777777 
R_n047_7_comp n047_7_comp n047_6_comp 0.38462766666666665 
R_n047_8_comp n047_8_comp n047_7_comp 0.442062 
R_n047_9_comp n047_9_comp n047_8_comp 0.7625 
R_n047_10_comp n047_10_comp n047_9_comp 0.7625 
R_n047_11_comp n047_11_comp n047_10_comp 0.7625 
R_n047_12_comp n047_12_comp n047_11_comp 0.7625 
R_n047_13_comp n047_13_comp n047_12_comp 0.7625 
R_n047_14_comp n047_14_comp n047_13_comp 0.7625 
R047_g_comp VSS n047_14_comp 0.01 
R048_s_comp n049_s N079 0.01 
R_n048_1_comp n048_1_comp n049_s 0.7625 
R_n048_2_comp n048_2_comp n048_1_comp 0.7625 
R_n048_3_comp n048_3_comp n048_2_comp 0.7625 
R_n048_4_comp n048_4_comp n048_3_comp 0.7625 
R048_g_comp VSS n048_4_comp 0.01 
R049_s_comp n050_s N032 0.01 
R049_g_comp N074 n050_s 0.01 
R050_s_comp n051_s N045 0.01 
R_n050_1_comp n050_1_comp n051_s 0.7625 
R_n050_2_comp n050_2_comp n050_1_comp 0.7625 
R050_g_comp N044 n050_2_comp 0.01 
R051_s_comp n052_s N058 0.01 
R_n051_1_comp n051_1_comp n052_s 0.38462766666666665 
R_n051_2_comp n051_2_comp n051_1_comp 0.28402777777777777 
R_n051_3_comp n051_3_comp n051_2_comp 0.38462766666666665 
R_n051_4_comp n051_4_comp n051_3_comp 0.442062 
R_n051_5_comp n051_5_comp n051_4_comp 0.7625 
R051_g_comp N032 n051_5_comp 0.01 
R052_s_comp n053_s N048 0.01 
R_n052_1_comp n052_1_comp n053_s 0.30119977777777773 
R_n052_2_comp n052_2_comp n052_1_comp 0.38939766666666664 
R_n052_3_comp n052_3_comp n052_2_comp 0.28402777777777777 
R_n052_4_comp n052_4_comp n052_3_comp 0.28402777777777777 
R_n052_5_comp n052_5_comp n052_4_comp 0.28402777777777777 
R_n052_6_comp n052_6_comp n052_5_comp 0.28402777777777777 
R_n052_7_comp n052_7_comp n052_6_comp 0.28402777777777777 
R_n052_8_comp n052_8_comp n052_7_comp 0.28402777777777777 
R_n052_9_comp n052_9_comp n052_8_comp 0.28402777777777777 
R_n052_10_comp n052_10_comp n052_9_comp 0.28402777777777777 
R_n052_11_comp n052_11_comp n052_10_comp 0.28402777777777777 
R_n052_12_comp n052_12_comp n052_11_comp 0.28402777777777777 
R_n052_13_comp n052_13_comp n052_12_comp 0.28402777777777777 
R_n052_14_comp n052_14_comp n052_13_comp 0.28402777777777777 
R_n052_15_comp n052_15_comp n052_14_comp 0.28402777777777777 
R_n052_16_comp n052_16_comp n052_15_comp 0.28402777777777777 
R_n052_17_comp n052_17_comp n052_16_comp 0.28402777777777777 
R_n052_18_comp n052_18_comp n052_17_comp 0.28402777777777777 
R_n052_19_comp n052_19_comp n052_18_comp 0.28402777777777777 
R_n052_20_comp n052_20_comp n052_19_comp 0.28402777777777777 
R_n052_21_comp n052_21_comp n052_20_comp 0.38939766666666664 
R_n052_22_comp n052_22_comp n052_21_comp 0.30119977777777773 
R_n052_23_comp n052_23_comp n052_22_comp 0.442062 
R_n052_24_comp n052_24_comp n052_23_comp 0.7625 
R052_g_comp VOUTP n052_24_comp 0.01 
R053_s_comp n054_s N012 0.01 
R_n053_1_comp n053_1_comp n054_s 0.7625 
R_n053_2_comp n053_2_comp n053_1_comp 0.442062 
R_n053_3_comp n053_3_comp n053_2_comp 0.30119977777777773 
R_n053_4_comp n053_4_comp n053_3_comp 0.38939766666666664 
R_n053_5_comp n053_5_comp n053_4_comp 0.28402777777777777 
R_n053_6_comp n053_6_comp n053_5_comp 0.38939766666666664 
R_n053_7_comp n053_7_comp n053_6_comp 0.20059988888888888 
R_n053_8_comp n053_8_comp n053_7_comp 0.38462766666666665 
R_n053_9_comp n053_9_comp n053_8_comp 0.442062 
R_n053_10_comp n053_10_comp n053_9_comp 0.7625 
R_n053_11_comp n053_11_comp n053_10_comp 0.7625 
R_n053_12_comp n053_12_comp n053_11_comp 0.7625 
R053_g_comp N011 n053_12_comp 0.01 
R054_s_comp n055_s N006 0.01 
R_n054_1_comp n054_1_comp n055_s 0.7625 
R_n054_2_comp n054_2_comp n054_1_comp 0.7625 
R054_g_comp N005 n054_2_comp 0.01 
R055_s_comp n056_s N026 0.01 
R_n055_1_comp n055_1_comp n056_s 0.7625 
R_n055_2_comp n055_2_comp n055_1_comp 0.7625 
R055_g_comp N011 n055_2_comp 0.01 
R056_s_comp n057_s N022 0.01 
R_n056_1_comp n056_1_comp n057_s 0.28402777777777777 
R_n056_2_comp n056_2_comp n056_1_comp 0.38462766666666665 
R_n056_3_comp n056_3_comp n056_2_comp 0.442062 
R_n056_4_comp n056_4_comp n056_3_comp 0.7625 
R_n056_5_comp n056_5_comp n056_4_comp 0.7625 
R056_g_comp N021 n056_5_comp 0.01 
R057_s_comp n058_s N030 0.01 
R_n057_1_comp n057_1_comp n058_s 0.7625 
R_n057_2_comp n057_2_comp n057_1_comp 0.7625 
R_n057_3_comp n057_3_comp n057_2_comp 0.7625 
R_n057_4_comp n057_4_comp n057_3_comp 0.7625 
R057_g_comp VSS n057_4_comp 0.01 
R058_s_comp n059_s N039 0.01 
R_n058_1_comp n058_1_comp n059_s 0.7625 
R_n058_2_comp n058_2_comp n058_1_comp 0.7625 
R058_g_comp VSS n058_2_comp 0.01 
R059_s_comp n060_s N006 0.01 
R059_g_comp N035 n060_s 0.01 
R060_s_comp n061_s N033 0.01 
R060_g_comp N045 n061_s 0.01 
R061_s_comp n062_s N041 0.01 
R_n061_1_comp n061_1_comp n062_s 0.7625 
R_n061_2_comp n061_2_comp n061_1_comp 0.7625 
R_n061_3_comp n061_3_comp n061_2_comp 0.7625 
R_n061_4_comp n061_4_comp n061_3_comp 0.7625 
R_n061_5_comp n061_5_comp n061_4_comp 0.7625 
R_n061_6_comp n061_6_comp n061_5_comp 0.7625 
R_n061_7_comp n061_7_comp n061_6_comp 0.7625 
R061_g_comp N049 n061_7_comp 0.01 
R062_s_comp n063_s N006 0.01 
R062_g_comp N043 n063_s 0.01 
R063_s_comp n064_s N045 0.01 
R063_g_comp N075 n064_s 0.01 
R064_s_comp n065_s VOUTN 0.01 
R_n064_1_comp n064_1_comp n065_s 0.7625 
R_n064_2_comp n064_2_comp n064_1_comp 0.7625 
R064_g_comp N049 n064_2_comp 0.01 
R065_s_comp n066_s N058 0.01 
R_n065_1_comp n065_1_comp n066_s 0.442062 
R_n065_2_comp n065_2_comp n065_1_comp 0.38462766666666665 
R_n065_3_comp n065_3_comp n065_2_comp 0.28402777777777777 
R_n065_4_comp n065_4_comp n065_3_comp 0.28402777777777777 
R_n065_5_comp n065_5_comp n065_4_comp 0.28402777777777777 
R_n065_6_comp n065_6_comp n065_5_comp 0.28402777777777777 
R_n065_7_comp n065_7_comp n065_6_comp 0.28402777777777777 
R_n065_8_comp n065_8_comp n065_7_comp 0.28402777777777777 
R_n065_9_comp n065_9_comp n065_8_comp 0.38462766666666665 
R_n065_10_comp n065_10_comp n065_9_comp 0.442062 
R065_g_comp N049 n065_10_comp 0.01 
R066_s_comp n067_s N060 0.01 
R066_g_comp N058 n067_s 0.01 
R067_s_comp n068_s N076 0.01 
R_n067_1_comp n067_1_comp n068_s 0.7625 
R_n067_2_comp n067_2_comp n067_1_comp 0.7625 