Version 4
SHEET 1 880 680
WIRE 96 64 80 64
WIRE -80 96 -96 96
WIRE -80 128 -80 96
WIRE -176 160 -224 160
WIRE 80 160 80 64
WIRE 80 160 -16 160
WIRE 176 160 80 160
WIRE 208 256 208 208
WIRE 272 256 272 208
WIRE 336 256 336 208
WIRE 400 256 400 208
WIRE 240 336 240 208
WIRE 304 336 304 208
WIRE 368 336 368 208
WIRE 208 464 208 320
WIRE 240 464 240 400
WIRE 272 464 272 320
WIRE 304 464 304 400
WIRE 336 464 336 320
WIRE 368 464 368 400
WIRE 400 464 400 320
FLAG 96 64 out
IOPIN 96 64 Out
FLAG -224 160 vin
IOPIN -224 160 In
FLAG -144 128 vdd
FLAG -144 192 vss
FLAG -96 96 sample
FLAG 208 208 n5
FLAG 240 208 n4
FLAG 272 208 n3
FLAG 304 208 n2
FLAG 336 208 n1
FLAG 368 208 n0
FLAG 224 320 0
FLAG 288 320 0
FLAG 352 320 0
FLAG 384 400 0
FLAG 320 400 0
FLAG 256 400 0
FLAG 208 464 ctrl[5]
FLAG 240 464 ctrl[4]
FLAG 272 464 ctrl[3]
FLAG 304 464 ctrl[2]
FLAG 336 464 ctrl[1]
FLAG 368 464 ctrl[0]
FLAG 400 208 ndum
FLAG 416 320 0
FLAG 400 464 dum
SYMBOL carray 112 160 R0
SYMATTR InstName X1
SYMBOL bootstrapped_sw -80 160 R0
SYMATTR InstName X2
SYMBOL Digital\\inv 144 320 R270
SYMATTR InstName A1
SYMATTR SpiceLine Vhigh={Vhigh} Vlow={Vlow} Td={Td} Trise={Trise}
SYMBOL Digital\\inv 176 400 R270
SYMATTR InstName A2
SYMATTR SpiceLine Vhigh={Vhigh} Vlow={Vlow} Td={Td} Trise={Trise}
SYMBOL Digital\\inv 208 320 R270
SYMATTR InstName A3
SYMATTR SpiceLine Vhigh={Vhigh} Vlow={Vlow} Td={Td} Trise={Trise}
SYMBOL Digital\\inv 240 400 R270
SYMATTR InstName A4
SYMATTR SpiceLine Vhigh={Vhigh} Vlow={Vlow} Td={Td} Trise={Trise}
SYMBOL Digital\\inv 272 320 R270
SYMATTR InstName A5
SYMATTR SpiceLine Vhigh={Vhigh} Vlow={Vlow} Td={Td} Trise={Trise}
SYMBOL Digital\\inv 304 400 R270
SYMATTR InstName A6
SYMATTR SpiceLine Vhigh={Vhigh} Vlow={Vlow} Td={Td} Trise={Trise}
SYMBOL Digital\\inv 336 320 R270
SYMATTR InstName A7
SYMATTR SpiceLine Vhigh={Vhigh} Vlow={Vlow} Td={Td} Trise={Trise}
