Version 4
SHEET 1 1188 680
WIRE 1104 -128 1008 -128
WIRE 1104 -96 1008 -96
WIRE -224 -64 -224 -128
WIRE 1104 -64 1008 -64
WIRE -336 -48 -432 -48
WIRE 1104 -32 1008 -32
WIRE -336 -16 -432 -16
WIRE 48 0 -112 0
WIRE 1104 0 1008 0
WIRE -336 16 -432 16
WIRE 1104 32 1008 32
WIRE -336 48 -432 48
WIRE 1104 64 1008 64
WIRE 208 80 208 16
WIRE 1104 96 1008 96
WIRE 1056 128 1008 128
WIRE -224 144 -224 64
WIRE 48 144 48 0
WIRE 128 144 48 144
WIRE 512 144 512 112
WIRE 448 160 368 160
WIRE 752 160 576 160
WIRE 1104 160 1008 160
WIRE 448 192 368 192
WIRE 624 192 576 192
WIRE 1056 192 1008 192
WIRE 128 208 48 208
WIRE 1104 224 1008 224
WIRE 512 240 512 208
WIRE 1056 256 1008 256
WIRE 1104 288 1008 288
WIRE 1056 320 1008 320
WIRE 208 352 208 272
WIRE 272 352 272 272
WIRE 1104 352 1008 352
WIRE 1056 384 1008 384
WIRE 1104 416 1008 416
WIRE 1056 448 1008 448
FLAG 208 16 vdd
FLAG 208 352 vss
FLAG 272 352 clkc
FLAG -224 -128 vdd
FLAG -224 144 vss
FLAG -432 -48 sample
FLAG -432 48 vdd
FLAG 48 208 vss
FLAG -432 -16 vin
FLAG -432 16 ctrl[5:0]
FLAG 512 112 vdd
FLAG 512 240 vss
FLAG 624 192 NC
FLAG 1104 64 sample
FLAG 1104 96 ctrl[0]
FLAG 1104 160 ctrl[1]
FLAG 1104 224 ctrl[2]
FLAG 1104 288 ctrl[3]
FLAG 1104 352 ctrl[4]
FLAG 1104 416 ctrl[5]
FLAG 1056 128 NC0
FLAG 1056 192 NC1
FLAG 1056 256 NC2
FLAG 1056 320 NC3
FLAG 1056 384 NC4
FLAG 1056 448 NC5
FLAG 1104 -128 Q00
FLAG 1104 -96 Q01
FLAG 1104 -64 Q02
FLAG 1104 -32 Q03
FLAG 1104 0 Q04
FLAG 1104 32 Q05
SYMBOL my_comparator2 240 192 R0
SYMATTR InstName X1
SYMBOL dac -224 0 R0
SYMATTR InstName X2
SYMBOL latch 496 176 R0
SYMATTR InstName X3
SYMBOL SARLogic 880 144 R0
SYMATTR InstName X4
