Version 4
SHEET 1 880 680
WIRE 16 -144 -48 -144
WIRE 144 -144 16 -144
WIRE 384 -144 256 -144
WIRE 448 -144 384 -144
WIRE 16 48 16 -144
WIRE 128 48 16 48
WIRE 384 48 384 -144
WIRE 384 48 240 48
WIRE 16 160 16 48
WIRE 384 160 384 48
WIRE 64 208 16 208
WIRE 384 208 336 208
WIRE -256 240 -304 240
WIRE -32 240 -144 240
WIRE 544 240 432 240
WIRE 704 240 656 240
WIRE 16 336 16 256
WIRE 16 336 -16 336
WIRE 64 336 64 208
WIRE 64 336 16 336
WIRE 336 336 336 208
WIRE 384 336 384 256
WIRE 384 336 336 336
WIRE 416 336 384 336
FLAG 192 -192 vdd
FLAG 192 -96 vss
FLAG 192 0 vdd
FLAG 192 96 vss
FLAG 608 192 vdd
FLAG 608 288 vss
FLAG -208 192 vdd
FLAG -208 288 vss
FLAG 448 -144 Q
IOPIN 448 -144 Out
FLAG 704 240 R
IOPIN 704 240 In
FLAG -48 -144 Qn
IOPIN -48 -144 Out
FLAG -304 240 S
IOPIN -304 240 In
FLAG -16 336 vss
FLAG 416 336 vss
FLAG -352 -96 vdd
IOPIN -352 -96 BiDir
FLAG -368 -48 vss
IOPIN -368 -48 BiDir
SYMBOL inv_lvt 208 -144 R0
SYMATTR InstName X1
SYMBOL inv_lvt 176 48 M0
SYMATTR InstName X2
SYMBOL inv_lvt 592 240 M0
SYMATTR InstName X3
SYMBOL inv_lvt -192 240 R0
SYMATTR InstName X4
SYMBOL nmos4 -32 160 R0
SYMATTR InstName M1
SYMBOL nmos4 432 160 M0
SYMATTR InstName M2
