Version 4
SHEET 1 932 680
WIRE 160 64 0 64
WIRE 528 64 160 64
WIRE 816 64 528 64
WIRE 160 128 160 64
WIRE 96 160 0 160
WIRE 528 160 528 64
WIRE 816 160 816 64
WIRE 416 176 224 176
WIRE 672 192 672 160
WIRE 672 192 608 192
WIRE 736 192 704 192
WIRE 96 208 0 208
WIRE 416 208 416 176
WIRE 448 208 416 208
WIRE 928 208 896 208
WIRE 640 224 608 224
WIRE 672 224 672 192
WIRE 736 224 672 224
WIRE 352 240 224 240
WIRE 640 240 640 224
WIRE 672 240 640 240
WIRE 704 240 704 192
WIRE 704 240 672 240
WIRE 96 256 0 256
WIRE 672 272 672 240
WIRE 352 304 352 240
WIRE 928 304 928 208
WIRE 928 304 352 304
WIRE 160 352 160 288
WIRE 160 352 0 352
WIRE 528 352 528 256
WIRE 528 352 160 352
WIRE 816 352 816 256
WIRE 816 352 528 352
FLAG 0 64 VDD
IOPIN 0 64 In
FLAG 0 352 VSS
IOPIN 0 352 In
FLAG 0 160 CLK
IOPIN 0 160 In
FLAG 0 208 INN
IOPIN 0 208 In
FLAG 0 256 INP
IOPIN 0 256 In
FLAG 672 272 VOUTP
IOPIN 672 272 Out
FLAG 672 160 VOUTN
IOPIN 672 160 Out
SYMBOL module1 160 208 R0
SYMATTR InstName X1
SYMBOL module4 528 208 R0
SYMATTR InstName X2
SYMBOL module4 816 208 M0
SYMATTR InstName X3
