Version 4
SHEET 1 880 680
SYMBOL my_comparator_new 256 208 R0
SYMATTR InstName X1
