Version 4
SHEET 1 1312 680
WIRE 416 112 256 112
WIRE 544 112 416 112
WIRE 704 112 544 112
WIRE 864 112 704 112
WIRE 1024 112 864 112
WIRE 1200 112 1024 112
WIRE 256 192 256 112
WIRE 416 192 416 112
WIRE 544 192 544 112
WIRE 704 192 704 112
WIRE 864 192 864 112
WIRE 1024 192 1024 112
WIRE 256 368 256 272
WIRE 416 368 416 272
WIRE 544 368 544 272
WIRE 704 368 704 272
WIRE 864 368 864 272
WIRE 1024 368 1024 272
FLAG 256 368 n5
IOPIN 256 368 BiDir
FLAG 416 368 n4
IOPIN 416 368 BiDir
FLAG 544 368 n3
IOPIN 544 368 BiDir
FLAG 704 368 n2
IOPIN 704 368 BiDir
FLAG 864 368 n1
IOPIN 864 368 BiDir
FLAG 1024 368 ndum
IOPIN 1024 368 BiDir
FLAG 1200 112 top
IOPIN 1200 112 BiDir
SYMBOL unit_cap 352 240 R0
SYMATTR InstName X1[31:0]
SYMBOL unit_cap 512 240 R0
SYMATTR InstName X1[15:0]
SYMBOL unit_cap 640 240 R0
SYMATTR InstName X2[7:0]
SYMBOL unit_cap 800 240 R0
SYMATTR InstName X3[3:0]
SYMBOL unit_cap 960 240 R0
SYMATTR InstName X4[1:0]
SYMBOL unit_cap 1120 240 R0
SYMATTR InstName Xdum
