Version 4
SHEET 1 880 884
WIRE 192 -240 48 -240
WIRE 240 -240 192 -240
WIRE 432 -240 240 -240
WIRE 496 -240 432 -240
WIRE 192 -192 192 -240
WIRE 240 -192 240 -240
WIRE 432 -192 432 -240
WIRE 496 -192 496 -240
WIRE 192 -144 192 -176
WIRE 496 -144 496 -176
WIRE 80 -128 48 -128
WIRE 144 -128 96 -128
WIRE 592 -128 544 -128
WIRE 640 -128 608 -128
WIRE 240 -96 240 -176
WIRE 240 -96 192 -96
WIRE 432 -96 432 -176
WIRE 496 -96 432 -96
WIRE 192 -16 192 -48
WIRE 496 0 496 -48
WIRE 192 160 192 0
WIRE 496 240 496 16
WIRE 192 320 192 176
WIRE 496 320 496 256
WIRE 256 368 192 368
WIRE 384 368 272 368
WIRE 432 368 384 368
WIRE 496 368 448 368
WIRE 96 400 48 400
WIRE 144 400 112 400
WIRE 592 400 544 400
WIRE 672 400 608 400
WIRE 192 432 192 416
WIRE 240 432 192 432
WIRE 336 432 256 432
WIRE 432 432 336 432
WIRE 496 432 496 416
WIRE 496 432 448 432
WIRE 336 544 336 432
WIRE 384 544 384 368
WIRE 336 624 336 560
WIRE 352 672 336 672
WIRE 384 672 384 560
WIRE 384 672 368 672
WIRE 240 704 208 704
WIRE 288 704 256 704
WIRE 336 752 336 720
WIRE 384 752 384 672
WIRE 336 816 336 768
WIRE 336 816 48 816
WIRE 384 816 384 768
WIRE 384 816 336 816
FLAG 48 -240 VDD
IOPIN 48 -240 In
FLAG 48 -128 CLK
IOPIN 48 -128 In
FLAG 48 400 VINP
IOPIN 48 400 In
FLAG 48 816 VSS
IOPIN 48 816 In
FLAG 672 400 VINN
IOPIN 672 400 In
FLAG 208 704 CLK
IOPIN 208 704 In
FLAG 640 -128 CLK
IOPIN 640 -128 In
SYMBOL nmos4 544 320 M0
SYMATTR InstName M1
SYMATTR Value CMOSN
SYMATTR Value2 l={L2} w={W2} m={M2}
SYMBOL nmos4 288 624 R0
SYMATTR InstName M2
SYMATTR Value CMOSN
SYMATTR Value2 l={L3} w={W3} m={M3}
SYMBOL pmos4 144 -48 M180
SYMATTR InstName M3
SYMATTR Value CMOSP
SYMATTR Value2 l={L4} w={W4} m={M4}
SYMBOL pmos4 544 -48 R180
SYMATTR InstName M4
SYMATTR Value CMOSP
SYMATTR Value2 l={L5} w={W5} m={M5}
SYMBOL nmos4 144 320 R0
SYMATTR InstName M5
SYMATTR Value CMOSN
SYMATTR Value2 l={L1} w={W1} m={M1}
SYMBOL para_register 176 -192 R90
SYMATTR InstName X1
SYMBOL para_register 224 -192 R90
SYMATTR InstName X2
SYMBOL para_register 416 -192 R90
SYMATTR InstName X3
SYMBOL para_register 480 -192 R90
SYMATTR InstName X4
SYMBOL para_register 96 -144 R180
SYMATTR InstName X5
SYMBOL para_register 608 -144 R180
SYMATTR InstName X6
SYMBOL para_register 208 0 R270
SYMATTR InstName X7
SYMBOL para_register 512 16 R270
SYMATTR InstName X8
SYMBOL para_register 208 176 R270
SYMATTR InstName X9
SYMBOL para_register 512 256 R270
SYMATTR InstName X10
SYMBOL para_register 96 416 R0
SYMATTR InstName X11
SYMBOL para_register 256 384 R0
SYMATTR InstName X12
SYMBOL para_register 432 384 R0
SYMATTR InstName X13
SYMBOL para_register 592 416 R0
SYMATTR InstName X14
SYMBOL para_register 240 448 R0
SYMATTR InstName X15
SYMBOL para_register 432 448 R0
SYMATTR InstName X16
SYMBOL para_register 320 544 R90
SYMATTR InstName X17
SYMBOL para_register 368 544 R90
SYMATTR InstName X18
SYMBOL para_register 256 688 R180
SYMATTR InstName X19
SYMBOL para_register 368 656 R180
SYMATTR InstName X20
SYMBOL para_register 320 752 R90
SYMATTR InstName X21
SYMBOL para_register 368 752 R90
SYMATTR InstName X22
