Version 4
SHEET 1 1836 1316
WIRE 240 80 -400 80
WIRE -128 112 -208 112
WIRE 32 112 -128 112
WIRE 240 112 240 80
WIRE -128 128 -128 112
WIRE 32 160 32 112
WIRE 144 160 32 160
WIRE 416 160 320 160
WIRE 640 160 416 160
WIRE 144 208 -16 208
WIRE 528 208 320 208
WIRE 640 208 528 208
WIRE -192 224 -288 224
WIRE -128 224 -128 208
WIRE -128 224 -192 224
WIRE -400 240 -400 80
WIRE -288 240 -288 224
WIRE -128 240 -128 224
WIRE 416 240 416 160
WIRE 528 240 528 208
WIRE -192 256 -192 224
WIRE -176 256 -192 256
WIRE 144 256 32 256
WIRE -208 304 -208 112
WIRE -176 304 -208 304
WIRE 240 304 240 272
WIRE 32 320 32 256
WIRE -128 336 -128 320
WIRE -16 336 -16 208
WIRE -16 336 -128 336
WIRE -400 352 -400 320
WIRE -288 352 -288 320
WIRE 416 352 416 304
WIRE 528 352 528 304
WIRE 32 432 32 400
FLAG -400 352 0
FLAG -288 352 0
FLAG 416 352 0
FLAG 528 352 0
FLAG 240 304 0
FLAG 640 160 VOUTP
FLAG 640 208 VOUTN
FLAG 32 432 0
SYMBOL voltage 32 304 R0
WINDOW 123 0 0 Left 0
WINDOW 39 0 0 Left 0
SYMATTR InstName CLK
SYMATTR Value PULSE(0 1.8 1n 60p 60p 5n 10n)
SYMBOL voltage -128 112 R0
WINDOW 123 0 0 Left 0
WINDOW 39 0 0 Left 0
SYMATTR InstName VIN
SYMATTR Value {VIN}
SYMBOL voltage -288 224 R0
WINDOW 123 0 0 Left 0
WINDOW 39 0 0 Left 0
SYMATTR InstName Vcom
SYMATTR Value 0.9
SYMBOL voltage -400 224 R0
WINDOW 123 0 0 Left 0
WINDOW 39 0 0 Left 0
SYMATTR InstName Vdd
SYMATTR Value 1.8
SYMBOL e -128 336 M180
SYMATTR InstName E1
SYMATTR Value -1
SYMBOL cap 400 240 R0
SYMATTR InstName C1
SYMATTR Value 10f
SYMBOL cap 512 240 R0
SYMATTR InstName C2
SYMATTR Value 10f
SYMBOL my_comparator 224 192 R0
SYMATTR InstName X1
TEXT 1648 -104 Left 2 !.param L = 0.18u\n.param L1 = L\n.param W1 = L1*10\n.param M1 = 1\n.param L2 = L\n.param W2 = L2*10\n.param M2 = 1\n.param L3 = L\n.param W3 = L3*10\n.param M3 = 1\n.param L4 = L\n.param W4 = L4*10\n.param M4 = 1\n.param L5 = L\n.param W5 = L5*10\n.param M5 = 1\n.param L6 = L\n.param W6 = L6*10\n.param M6 = 1\n.param L7 = L\n.param W7 = L7*10\n.param M7 = 1\n.param L8 = L\n.param W8 = L8*10\n.param M8 = 1\n.param L9 = L\n.param W9 = L9*10\n.param M9 = 1\n.param L10 = L\n.param W10 = L10*10\n.param M10 = 1\n.param L11 = L\n.param W11 = L11*10\n.param M11 = 1\n.param L12 = L\n.param W12 = L12*10\n.param M12 = 1\n.param L13 = L\n.param W13 = L13*10\n.param M13 = 1\n.param L14 = L\n.param W14 = L14*10\n.param M14 = 1\n.param L15 = L\n.param W15 = L15*10\n.param M15 = 1
TEXT 464 24 Left 2 !.param VIN 10m
TEXT 464 48 Left 2 !.op
TEXT 464 -16 Left 2 !.tran 40n\n.meas tl when V(VOUTP)=1.72
TEXT 464 72 Left 2 !.include "tsmc018.mdl"
