Version 4
SHEET 1 904 680
WIRE -16 112 -656 112
WIRE 576 112 -16 112
WIRE -384 144 -464 144
WIRE -224 144 -384 144
WIRE -16 144 -16 112
WIRE -384 160 -384 144
WIRE 576 160 576 112
WIRE -224 192 -224 144
WIRE -176 192 -224 192
WIRE -112 192 -176 192
WIRE 160 192 64 192
WIRE 336 192 160 192
WIRE 496 192 336 192
WIRE 752 192 656 192
WIRE -176 240 -272 240
WIRE -112 240 -176 240
WIRE 272 240 64 240
WIRE 336 240 272 240
WIRE 432 240 336 240
WIRE -448 256 -544 256
WIRE -384 256 -384 240
WIRE -384 256 -448 256
WIRE 432 256 432 240
WIRE 496 256 432 256
WIRE 752 256 656 256
WIRE -656 272 -656 112
WIRE -544 272 -544 256
WIRE -384 272 -384 256
WIRE 160 272 160 192
WIRE 272 272 272 240
WIRE -448 288 -448 256
WIRE -432 288 -448 288
WIRE -112 288 -224 288
WIRE -464 336 -464 144
WIRE -432 336 -464 336
WIRE -16 336 -16 304
WIRE -224 352 -224 288
WIRE 576 352 576 288
WIRE -384 368 -384 352
WIRE -272 368 -272 240
WIRE -272 368 -384 368
WIRE -656 384 -656 352
WIRE -544 384 -544 352
WIRE 160 384 160 336
WIRE 272 384 272 336
WIRE -224 464 -224 432
FLAG -656 384 0
FLAG -544 384 0
FLAG -224 464 0
FLAG 160 384 0
FLAG 272 384 0
FLAG -16 336 0
FLAG -176 192 VINP
FLAG -176 240 VINN
FLAG 336 192 VOP
FLAG 336 240 VON
FLAG 576 352 0
FLAG 752 192 VOUTN
IOPIN 752 192 Out
FLAG 752 256 VOUTP
IOPIN 752 256 Out
SYMBOL voltage -224 336 R0
WINDOW 123 0 0 Left 0
WINDOW 39 0 0 Left 0
SYMATTR InstName V1
SYMATTR Value PULSE(0 1.8 1n 60p 60p 5n 10n)
SYMBOL voltage -384 144 R0
WINDOW 123 0 0 Left 0
WINDOW 39 0 0 Left 0
WINDOW 3 -163 -59 Left 2
SYMATTR Value PULSE(-25m 25m 0 1000n 0 0 1000n)
SYMATTR InstName VIN1
SYMBOL voltage -544 256 R0
WINDOW 123 0 0 Left 0
WINDOW 39 0 0 Left 0
SYMATTR InstName V2
SYMATTR Value 0.9
SYMBOL voltage -656 256 R0
WINDOW 123 0 0 Left 0
WINDOW 39 0 0 Left 0
SYMATTR InstName V3
SYMATTR Value 1.8
SYMBOL e -384 368 M180
SYMATTR InstName E1
SYMATTR Value -1
SYMBOL cap 144 272 R0
SYMATTR InstName C1
SYMATTR Value 20f
SYMBOL cap 256 272 R0
SYMATTR InstName C2
SYMATTR Value 20f
SYMBOL my_comparator -32 224 R0
SYMATTR InstName X1
SYMBOL my_sr_flipflop 576 224 R0
SYMATTR InstName X2
TEXT 16 32 Left 2 !.op
TEXT 168 -112 Left 2 !.ic V(VOP)=0 V(VON)=1.8\n \n.tran 1000n\n.meas offset find V(VINP,VINN) when V(VOUTP)=0.9
TEXT 424 -192 Left 2 !*.step param X 1 100 1
